@<TRIPOS>MOLECULE
native
    26    28     1     0     0
SMALL
NO_CHARGES
****
Generated from the CSD

@<TRIPOS>ATOM
     1 C1      28.7000  14.8150  13.9820   C.3       1 RES1   0.0000
     2 C2      29.8600  13.8940  13.8750   C.2       1 RES1   0.0000
     3 N3      30.0410  12.8280  14.6430   N.2       1 RES1   0.0000
     4 C4      31.2240  12.2710  14.2300   C.2       1 RES1   0.0000
     5 C5      31.7850  12.9850  13.2080   C.2       1 RES1   0.0000
     6 C6      33.0450  12.7100  12.5110   C.2       1 RES1   0.0000
     7 C7      33.4970  11.4070  12.3350   C.2       1 RES1   0.0000
     8 C8      34.7040  11.2330  11.6870   C.2       1 RES1   0.0000
     9 N9      35.4500  12.2520  11.2530   N.2       1 RES1   0.0000
    10 C10     34.9570  13.4980  11.4700   C.2       1 RES1   0.0000
    11 N11     35.7640  14.5090  11.0190   N.2       1 RES1   0.0000
    12 C12     35.4660  15.8130  10.5540   C.2       1 RES1   0.0000
    13 C13     34.2030  16.2130  10.0950   C.2       1 RES1   0.0000
    14 C14     33.9910  17.5040   9.6480   C.2       1 RES1   0.0000
    15 C15     35.0430  18.4060   9.6450   C.2       1 RES1   0.0000
    16 S16     34.7950  20.0620   9.0770   S.o2      1 RES1   0.0000
    17 C17     35.5560  21.0670  10.2940   C.3       1 RES1   0.0000
    18 O18     35.5220  20.2040   7.8540   O.2       1 RES1   0.0000
    19 O19     33.3910  20.3520   9.0720   O.2       1 RES1   0.0000
    20 C20     36.3050  18.0240  10.0710   C.2       1 RES1   0.0000
    21 C21     36.5150  16.7400  10.5280   C.2       1 RES1   0.0000
    22 N22     33.7910  13.7570  12.1040   N.2       1 RES1   0.0000
    23 N23     30.8950  14.0450  12.9500   N.pl3     1 RES1   0.0000
    24 C24     31.0200  15.1130  11.9500   C.3       1 RES1   0.0000
    25 C25     31.1760  16.4730  12.6160   C.3       1 RES1   0.0000
    26 C26     29.9060  15.0670  10.9080   C.3       1 RES1   0.0000
@<TRIPOS>BOND
     1     1     2    1
     2     2     3    2
     3     3     4    1
     4     4     5    2
     5     5     6    1
     6     6     7    2
     7     7     8    1
     8     8     9    2
     9     9    10    1
    10    10    11    1
    11    11    12    1
    12    12    13    2
    13    13    14    1
    14    14    15    2
    15    15    16    1
    16    16    17    1
    17    16    18    2
    18    16    19    2
    19    15    20    1
    20    20    21    2
    21    10    22    2
    22     5    23    1
    23    23    24    1
    24    24    25    1
    25    24    26    1
    26    23     2    1
    27    22     6    1
    28    21    12    1
@<TRIPOS>SUBSTRUCTURE
     1 RES1        1 GROUP             0 ****  ****    0  
@<TRIPOS>MOLECULE
ligand_0
    26    28     1     0     0
SMALL
NO_CHARGES
****
Generated from the CSD

@<TRIPOS>ATOM
     1 C1      28.8056  14.9173  14.1326   C.3       1 RES1   0.0000
     2 C2      29.9048  13.9377  13.9387   C.2       1 RES1   0.0000
     3 N3      29.9908  12.7760  14.5727   N.2       1 RES1   0.0000
     4 C4      31.1465  12.1925  14.1208   C.2       1 RES1   0.0000
     5 C5      31.7850  12.9850  13.2080   C.2       1 RES1   0.0000
     6 C6      33.0450  12.7100  12.5110   C.2       1 RES1   0.0000
     7 C7      33.8664  11.6591  12.9033   C.2       1 RES1   0.0000
     8 C8      35.0468  11.4793  12.2095   C.2       1 RES1   0.0000
     9 N9      35.4320  12.2773  11.2105   N.2       1 RES1   0.0000
    10 C10     34.5903  13.2923  10.8883   C.2       1 RES1   0.0000
    11 N11     35.0355  14.0900   9.8673   N.2       1 RES1   0.0000
    12 C12     34.4080  15.1389   9.1521   C.2       1 RES1   0.0000
    13 C13     33.0351  15.4174   9.2110   C.2       1 RES1   0.0000
    14 C14     32.4935  16.4555   8.4758   C.2       1 RES1   0.0000
    15 C15     33.3177  17.2195   7.6651   C.2       1 RES1   0.0000
    16 S16     32.6467  18.5516   6.7155   S.o2      1 RES1   0.0000
    17 C17     32.4119  17.8804   5.1140   C.3       1 RES1   0.0000
    18 O18     31.3650  18.8624   7.2679   O.2       1 RES1   0.0000
    19 O19     33.6203  19.5998   6.6224   O.2       1 RES1   0.0000
    20 C20     34.6729  16.9453   7.5733   C.2       1 RES1   0.0000
    21 C21     35.2163  15.9176   8.3150   C.2       1 RES1   0.0000
    22 N22     33.4226  13.5449  11.5217   N.2       1 RES1   0.0000
    23 N23     30.9757  14.1279  13.0631   N.pl3     1 RES1   0.0000
    24 C24     31.2022  15.2986  12.2061   C.3       1 RES1   0.0000
    25 C25     31.3863  16.5603  13.0378   C.3       1 RES1   0.0000
    26 C26     30.1431  15.4345  11.1158   C.3       1 RES1   0.0000
@<TRIPOS>BOND
     1     1     2    1
     2     2     3    2
     3     3     4    1
     4     4     5    2
     5     5     6    1
     6     6     7    2
     7     7     8    1
     8     8     9    2
     9     9    10    1
    10    10    11    1
    11    11    12    1
    12    12    13    2
    13    13    14    1
    14    14    15    2
    15    15    16    1
    16    16    17    1
    17    16    18    2
    18    16    19    2
    19    15    20    1
    20    20    21    2
    21    10    22    2
    22     5    23    1
    23    23    24    1
    24    24    25    1
    25    24    26    1
    26    23     2    1
    27    22     6    1
    28    21    12    1
@<TRIPOS>SUBSTRUCTURE
     1 RES1        1 GROUP             0 ****  ****    0  
@<TRIPOS>MOLECULE
ligand_1
    26    28     1     0     0
SMALL
NO_CHARGES
****
Generated from the CSD

@<TRIPOS>ATOM
     1 C1      28.6161  14.7124  13.8708   C.3       1 RES1   0.0000
     2 C2      29.8245  13.8503  13.8280   C.2       1 RES1   0.0000
     3 N3      30.0807  12.8794  14.6945   N.2       1 RES1   0.0000
     4 C4      31.2854  12.3490  14.3102   C.2       1 RES1   0.0000
     5 C5      31.7850  12.9850  13.2080   C.2       1 RES1   0.0000
     6 C6      33.0450  12.7100  12.5110   C.2       1 RES1   0.0000
     7 C7      33.8664  11.6591  12.9033   C.2       1 RES1   0.0000
     8 C8      35.0468  11.4793  12.2095   C.2       1 RES1   0.0000
     9 N9      35.4320  12.2773  11.2105   N.2       1 RES1   0.0000
    10 C10     34.5903  13.2923  10.8883   C.2       1 RES1   0.0000
    11 N11     35.0355  14.0900   9.8673   N.2       1 RES1   0.0000
    12 C12     34.5528  15.3193   9.3561   C.2       1 RES1   0.0000
    13 C13     34.9152  15.8470   8.1087   C.2       1 RES1   0.0000
    14 C14     34.4074  17.0597   7.6811   C.2       1 RES1   0.0000
    15 C15     33.5399  17.7632   8.5014   C.2       1 RES1   0.0000
    16 S16     32.8789  19.3164   7.9753   S.o2      1 RES1   0.0000
    17 C17     33.8977  20.5159   8.7459   C.3       1 RES1   0.0000
    18 O18     33.0706  19.4015   6.5610   O.2       1 RES1   0.0000
    19 O19     31.5494  19.4609   8.4921   O.2       1 RES1   0.0000
    20 C20     33.1885  17.2714   9.7483   C.2       1 RES1   0.0000
    21 C21     33.6851  16.0564  10.1711   C.2       1 RES1   0.0000
    22 N22     33.4226  13.5449  11.5217   N.2       1 RES1   0.0000
    23 N23     30.8312  13.9629  12.8671   N.pl3     1 RES1   0.0000
    24 C24     30.8758  14.9289  11.7620   C.3       1 RES1   0.0000
    25 C25     31.0998  16.3434  12.2782   C.3       1 RES1   0.0000
    26 C26     29.6743  14.8017  10.8298   C.3       1 RES1   0.0000
@<TRIPOS>BOND
     1     1     2    1
     2     2     3    2
     3     3     4    1
     4     4     5    2
     5     5     6    1
     6     6     7    2
     7     7     8    1
     8     8     9    2
     9     9    10    1
    10    10    11    1
    11    11    12    1
    12    12    13    2
    13    13    14    1
    14    14    15    2
    15    15    16    1
    16    16    17    1
    17    16    18    2
    18    16    19    2
    19    15    20    1
    20    20    21    2
    21    10    22    2
    22     5    23    1
    23    23    24    1
    24    24    25    1
    25    24    26    1
    26    23     2    1
    27    22     6    1
    28    21    12    1
@<TRIPOS>SUBSTRUCTURE
     1 RES1        1 GROUP             0 ****  ****    0  
@<TRIPOS>MOLECULE
ligand_2
    26    28     1     0     0
SMALL
NO_CHARGES
****
Generated from the CSD

@<TRIPOS>ATOM
     1 C1      28.6939  14.8082  13.9736   C.3       1 RES1   0.0000
     2 C2      29.8574  13.8911  13.8715   C.2       1 RES1   0.0000
     3 N3      30.0439  12.8314  14.6469   N.2       1 RES1   0.0000
     4 C4      31.2285  12.2762  14.2361   C.2       1 RES1   0.0000
     5 C5      31.7850  12.9850  13.2080   C.2       1 RES1   0.0000
     6 C6      33.0450  12.7100  12.5110   C.2       1 RES1   0.0000
     7 C7      33.8664  11.6591  12.9033   C.2       1 RES1   0.0000
     8 C8      35.0468  11.4793  12.2095   C.2       1 RES1   0.0000
     9 N9      35.4320  12.2773  11.2105   N.2       1 RES1   0.0000
    10 C10     34.5903  13.2923  10.8883   C.2       1 RES1   0.0000
    11 N11     35.0355  14.0900   9.8673   N.2       1 RES1   0.0000
    12 C12     36.2325  14.0681   9.1110   C.2       1 RES1   0.0000
    13 C13     37.3300  13.2456   9.4023   C.2       1 RES1   0.0000
    14 C14     38.4696  13.2865   8.6207   C.2       1 RES1   0.0000
    15 C15     38.5281  14.1588   7.5455   C.2       1 RES1   0.0000
    16 S16     39.9758  14.2287   6.5327   S.o2      1 RES1   0.0000
    17 C17     40.8790  15.6002   7.1438   C.3       1 RES1   0.0000
    18 O18     40.7296  13.0408   6.7881   O.2       1 RES1   0.0000
    19 O19     39.5909  14.5133   5.1814   O.2       1 RES1   0.0000
    20 C20     37.4644  14.9980   7.2553   C.2       1 RES1   0.0000
    21 C21     36.3226  14.9498   8.0271   C.2       1 RES1   0.0000
    22 N22     33.4226  13.5449  11.5217   N.2       1 RES1   0.0000
    23 N23     30.8903  14.0395  12.9437   N.pl3     1 RES1   0.0000
    24 C24     31.0095  15.1007  11.9358   C.3       1 RES1   0.0000
    25 C25     31.2296  16.4573  12.5905   C.3       1 RES1   0.0000
    26 C26     29.8569  15.0846  10.9357   C.3       1 RES1   0.0000
@<TRIPOS>BOND
     1     1     2    1
     2     2     3    2
     3     3     4    1
     4     4     5    2
     5     5     6    1
     6     6     7    2
     7     7     8    1
     8     8     9    2
     9     9    10    1
    10    10    11    1
    11    11    12    1
    12    12    13    2
    13    13    14    1
    14    14    15    2
    15    15    16    1
    16    16    17    1
    17    16    18    2
    18    16    19    2
    19    15    20    1
    20    20    21    2
    21    10    22    2
    22     5    23    1
    23    23    24    1
    24    24    25    1
    25    24    26    1
    26    23     2    1
    27    22     6    1
    28    21    12    1
@<TRIPOS>SUBSTRUCTURE
     1 RES1        1 GROUP             0 ****  ****    0  
@<TRIPOS>MOLECULE
ligand_3
    26    28     1     0     0
SMALL
NO_CHARGES
****
Generated from the CSD

@<TRIPOS>ATOM
     1 C1      28.7053  14.8208  13.9892   C.3       1 RES1   0.0000
     2 C2      29.8622  13.8965  13.8781   C.2       1 RES1   0.0000
     3 N3      30.0385  12.8251  14.6396   N.2       1 RES1   0.0000
     4 C4      31.2202  12.2666  14.2248   C.2       1 RES1   0.0000
     5 C5      31.7850  12.9850  13.2080   C.2       1 RES1   0.0000
     6 C6      33.0450  12.7100  12.5110   C.2       1 RES1   0.0000
     7 C7      33.8664  11.6591  12.9033   C.2       1 RES1   0.0000
     8 C8      35.0468  11.4793  12.2095   C.2       1 RES1   0.0000
     9 N9      35.4320  12.2773  11.2105   N.2       1 RES1   0.0000
    10 C10     34.5903  13.2923  10.8883   C.2       1 RES1   0.0000
    11 N11     35.0355  14.0900   9.8673   N.2       1 RES1   0.0000
    12 C12     36.2330  14.0688   9.1117   C.2       1 RES1   0.0000
    13 C13     37.3306  13.2466   9.4035   C.2       1 RES1   0.0000
    14 C14     38.4708  13.2883   8.6227   C.2       1 RES1   0.0000
    15 C15     38.5296  14.1609   7.5478   C.2       1 RES1   0.0000
    16 S16     39.9780  14.2317   6.5360   S.o2      1 RES1   0.0000
    17 C17     40.8802  15.6034   7.1482   C.3       1 RES1   0.0000
    18 O18     40.7320  13.0440   6.7915   O.2       1 RES1   0.0000
    19 O19     39.5939  14.5166   5.1845   O.2       1 RES1   0.0000
    20 C20     37.4657  14.9998   7.2572   C.2       1 RES1   0.0000
    21 C21     36.3235  14.9509   8.0282   C.2       1 RES1   0.0000
    22 N22     33.4226  13.5449  11.5217   N.2       1 RES1   0.0000
    23 N23     30.8990  14.0496  12.9554   N.pl3     1 RES1   0.0000
    24 C24     31.0290  15.1234  11.9622   C.3       1 RES1   0.0000
    25 C25     30.9452  14.5735  10.5452   C.3       1 RES1   0.0000
    26 C26     32.2565  15.9964  12.2073   C.3       1 RES1   0.0000
@<TRIPOS>BOND
     1     1     2    1
     2     2     3    2
     3     3     4    1
     4     4     5    2
     5     5     6    1
     6     6     7    2
     7     7     8    1
     8     8     9    2
     9     9    10    1
    10    10    11    1
    11    11    12    1
    12    12    13    2
    13    13    14    1
    14    14    15    2
    15    15    16    1
    16    16    17    1
    17    16    18    2
    18    16    19    2
    19    15    20    1
    20    20    21    2
    21    10    22    2
    22     5    23    1
    23    23    24    1
    24    24    25    1
    25    24    26    1
    26    23     2    1
    27    22     6    1
    28    21    12    1
@<TRIPOS>SUBSTRUCTURE
     1 RES1        1 GROUP             0 ****  ****    0  
@<TRIPOS>MOLECULE
ligand_4
    26    28     1     0     0
SMALL
NO_CHARGES
****
Generated from the CSD

@<TRIPOS>ATOM
     1 C1      28.6939  14.8082  13.9736   C.3       1 RES1   0.0000
     2 C2      29.8574  13.8911  13.8715   C.2       1 RES1   0.0000
     3 N3      30.0439  12.8314  14.6469   N.2       1 RES1   0.0000
     4 C4      31.2285  12.2762  14.2361   C.2       1 RES1   0.0000
     5 C5      31.7850  12.9850  13.2080   C.2       1 RES1   0.0000
     6 C6      33.0450  12.7100  12.5110   C.2       1 RES1   0.0000
     7 C7      33.8664  11.6591  12.9033   C.2       1 RES1   0.0000
     8 C8      35.0468  11.4793  12.2095   C.2       1 RES1   0.0000
     9 N9      35.4320  12.2773  11.2105   N.2       1 RES1   0.0000
    10 C10     34.5903  13.2923  10.8883   C.2       1 RES1   0.0000
    11 N11     35.0355  14.0900   9.8673   N.2       1 RES1   0.0000
    12 C12     36.2325  14.0681   9.1110   C.2       1 RES1   0.0000
    13 C13     37.3300  13.2456   9.4023   C.2       1 RES1   0.0000
    14 C14     38.4696  13.2865   8.6207   C.2       1 RES1   0.0000
    15 C15     38.5281  14.1588   7.5455   C.2       1 RES1   0.0000
    16 S16     39.9758  14.2287   6.5327   S.o2      1 RES1   0.0000
    17 C17     39.7991  12.8921   5.4135   C.3       1 RES1   0.0000
    18 O18     39.9163  15.4500   5.7917   O.2       1 RES1   0.0000
    19 O19     41.1306  13.9812   7.3455   O.2       1 RES1   0.0000
    20 C20     37.4644  14.9980   7.2553   C.2       1 RES1   0.0000
    21 C21     36.3226  14.9498   8.0271   C.2       1 RES1   0.0000
    22 N22     33.4226  13.5449  11.5217   N.2       1 RES1   0.0000
    23 N23     30.8903  14.0395  12.9437   N.pl3     1 RES1   0.0000
    24 C24     31.0095  15.1007  11.9358   C.3       1 RES1   0.0000
    25 C25     31.2296  16.4573  12.5905   C.3       1 RES1   0.0000
    26 C26     29.8569  15.0846  10.9357   C.3       1 RES1   0.0000
@<TRIPOS>BOND
     1     1     2    1
     2     2     3    2
     3     3     4    1
     4     4     5    2
     5     5     6    1
     6     6     7    2
     7     7     8    1
     8     8     9    2
     9     9    10    1
    10    10    11    1
    11    11    12    1
    12    12    13    2
    13    13    14    1
    14    14    15    2
    15    15    16    1
    16    16    17    1
    17    16    18    2
    18    16    19    2
    19    15    20    1
    20    20    21    2
    21    10    22    2
    22     5    23    1
    23    23    24    1
    24    24    25    1
    25    24    26    1
    26    23     2    1
    27    22     6    1
    28    21    12    1
@<TRIPOS>SUBSTRUCTURE
     1 RES1        1 GROUP             0 ****  ****    0  
@<TRIPOS>MOLECULE
ligand_5
    26    28     1     0     0
SMALL
NO_CHARGES
****
Generated from the CSD

@<TRIPOS>ATOM
     1 C1      28.7053  14.8208  13.9892   C.3       1 RES1   0.0000
     2 C2      29.8622  13.8965  13.8781   C.2       1 RES1   0.0000
     3 N3      30.0385  12.8251  14.6396   N.2       1 RES1   0.0000
     4 C4      31.2202  12.2666  14.2248   C.2       1 RES1   0.0000
     5 C5      31.7850  12.9850  13.2080   C.2       1 RES1   0.0000
     6 C6      33.0450  12.7100  12.5110   C.2       1 RES1   0.0000
     7 C7      33.8664  11.6591  12.9033   C.2       1 RES1   0.0000
     8 C8      35.0468  11.4793  12.2095   C.2       1 RES1   0.0000
     9 N9      35.4320  12.2773  11.2105   N.2       1 RES1   0.0000
    10 C10     34.5903  13.2923  10.8883   C.2       1 RES1   0.0000
    11 N11     35.0355  14.0900   9.8673   N.2       1 RES1   0.0000
    12 C12     36.2330  14.0688   9.1117   C.2       1 RES1   0.0000
    13 C13     37.3306  13.2466   9.4035   C.2       1 RES1   0.0000
    14 C14     38.4708  13.2883   8.6227   C.2       1 RES1   0.0000
    15 C15     38.5296  14.1609   7.5478   C.2       1 RES1   0.0000
    16 S16     39.9780  14.2317   6.5360   S.o2      1 RES1   0.0000
    17 C17     39.8025  12.8955   5.4162   C.3       1 RES1   0.0000
    18 O18     39.9184  15.4533   5.7954   O.2       1 RES1   0.0000
    19 O19     41.1323  13.9844   7.3495   O.2       1 RES1   0.0000
    20 C20     37.4657  14.9998   7.2572   C.2       1 RES1   0.0000
    21 C21     36.3235  14.9509   8.0282   C.2       1 RES1   0.0000
    22 N22     33.4226  13.5449  11.5217   N.2       1 RES1   0.0000
    23 N23     30.8990  14.0496  12.9554   N.pl3     1 RES1   0.0000
    24 C24     31.0290  15.1234  11.9622   C.3       1 RES1   0.0000
    25 C25     30.9452  14.5735  10.5452   C.3       1 RES1   0.0000
    26 C26     32.2565  15.9964  12.2073   C.3       1 RES1   0.0000
@<TRIPOS>BOND
     1     1     2    1
     2     2     3    2
     3     3     4    1
     4     4     5    2
     5     5     6    1
     6     6     7    2
     7     7     8    1
     8     8     9    2
     9     9    10    1
    10    10    11    1
    11    11    12    1
    12    12    13    2
    13    13    14    1
    14    14    15    2
    15    15    16    1
    16    16    17    1
    17    16    18    2
    18    16    19    2
    19    15    20    1
    20    20    21    2
    21    10    22    2
    22     5    23    1
    23    23    24    1
    24    24    25    1
    25    24    26    1
    26    23     2    1
    27    22     6    1
    28    21    12    1
@<TRIPOS>SUBSTRUCTURE
     1 RES1        1 GROUP             0 ****  ****    0  
@<TRIPOS>MOLECULE
ligand_6
    26    28     1     0     0
SMALL
NO_CHARGES
****
Generated from the CSD

@<TRIPOS>ATOM
     1 C1      28.6952  14.8097  13.9755   C.3       1 RES1   0.0000
     2 C2      29.8580  13.8917  13.8722   C.2       1 RES1   0.0000
     3 N3      30.0433  12.8307  14.6460   N.2       1 RES1   0.0000
     4 C4      31.2275  12.2751  14.2347   C.2       1 RES1   0.0000
     5 C5      31.7850  12.9850  13.2080   C.2       1 RES1   0.0000
     6 C6      33.0450  12.7100  12.5110   C.2       1 RES1   0.0000
     7 C7      33.8664  11.6591  12.9033   C.2       1 RES1   0.0000
     8 C8      35.0468  11.4793  12.2095   C.2       1 RES1   0.0000
     9 N9      35.4320  12.2773  11.2105   N.2       1 RES1   0.0000
    10 C10     34.5903  13.2923  10.8883   C.2       1 RES1   0.0000
    11 N11     35.0355  14.0900   9.8673   N.2       1 RES1   0.0000
    12 C12     36.1985  14.0244   9.0620   C.2       1 RES1   0.0000
    13 C13     36.9297  15.1462   8.6465   C.2       1 RES1   0.0000
    14 C14     38.0524  15.0023   7.8526   C.2       1 RES1   0.0000
    15 C15     38.4496  13.7352   7.4565   C.2       1 RES1   0.0000
    16 S16     39.8818  13.5275   6.4406   S.o2      1 RES1   0.0000
    17 C17     39.2522  13.3715   4.8129   C.3       1 RES1   0.0000
    18 O18     40.6368  14.7392   6.5193   O.2       1 RES1   0.0000
    19 O19     40.5306  12.2973   6.7885   O.2       1 RES1   0.0000
    20 C20     37.7268  12.6153   7.8354   C.2       1 RES1   0.0000
    21 C21     36.6136  12.7566   8.6369   C.2       1 RES1   0.0000
    22 N22     33.4226  13.5449  11.5217   N.2       1 RES1   0.0000
    23 N23     30.8914  14.0407  12.9451   N.pl3     1 RES1   0.0000
    24 C24     31.0118  15.1034  11.9389   C.3       1 RES1   0.0000
    25 C25     31.2225  16.4603  12.5962   C.3       1 RES1   0.0000
    26 C26     29.8650  15.0835  10.9323   C.3       1 RES1   0.0000
@<TRIPOS>BOND
     1     1     2    1
     2     2     3    2
     3     3     4    1
     4     4     5    2
     5     5     6    1
     6     6     7    2
     7     7     8    1
     8     8     9    2
     9     9    10    1
    10    10    11    1
    11    11    12    1
    12    12    13    2
    13    13    14    1
    14    14    15    2
    15    15    16    1
    16    16    17    1
    17    16    18    2
    18    16    19    2
    19    15    20    1
    20    20    21    2
    21    10    22    2
    22     5    23    1
    23    23    24    1
    24    24    25    1
    25    24    26    1
    26    23     2    1
    27    22     6    1
    28    21    12    1
@<TRIPOS>SUBSTRUCTURE
     1 RES1        1 GROUP             0 ****  ****    0  
@<TRIPOS>MOLECULE
ligand_7
    26    28     1     0     0
SMALL
NO_CHARGES
****
Generated from the CSD

@<TRIPOS>ATOM
     1 C1      28.7052  14.8207  13.9891   C.3       1 RES1   0.0000
     2 C2      29.8622  13.8964  13.8780   C.2       1 RES1   0.0000
     3 N3      30.0385  12.8251  14.6397   N.2       1 RES1   0.0000
     4 C4      31.2202  12.2667  14.2249   C.2       1 RES1   0.0000
     5 C5      31.7850  12.9850  13.2080   C.2       1 RES1   0.0000
     6 C6      33.0450  12.7100  12.5110   C.2       1 RES1   0.0000
     7 C7      33.8664  11.6591  12.9033   C.2       1 RES1   0.0000
     8 C8      35.0468  11.4793  12.2095   C.2       1 RES1   0.0000
     9 N9      35.4320  12.2773  11.2105   N.2       1 RES1   0.0000
    10 C10     34.5903  13.2923  10.8883   C.2       1 RES1   0.0000
    11 N11     35.0355  14.0900   9.8673   N.2       1 RES1   0.0000
    12 C12     36.1984  14.0243   9.0619   C.2       1 RES1   0.0000
    13 C13     36.9298  15.1461   8.6465   C.2       1 RES1   0.0000
    14 C14     38.0524  15.0021   7.8525   C.2       1 RES1   0.0000
    15 C15     38.4494  13.7349   7.4562   C.2       1 RES1   0.0000
    16 S16     39.8815  13.5271   6.4402   S.o2      1 RES1   0.0000
    17 C17     39.2517  13.3716   4.8125   C.3       1 RES1   0.0000
    18 O18     40.6366  14.7387   6.5190   O.2       1 RES1   0.0000
    19 O19     40.5301  12.2968   6.7879   O.2       1 RES1   0.0000
    20 C20     37.7265  12.6152   7.8351   C.2       1 RES1   0.0000
    21 C21     36.6133  12.7565   8.6366   C.2       1 RES1   0.0000
    22 N22     33.4226  13.5449  11.5217   N.2       1 RES1   0.0000
    23 N23     30.8989  14.0496  12.9553   N.pl3     1 RES1   0.0000
    24 C24     31.0289  15.1233  11.9621   C.3       1 RES1   0.0000
    25 C25     30.9445  14.5733  10.5451   C.3       1 RES1   0.0000
    26 C26     32.2566  15.9960  12.2067   C.3       1 RES1   0.0000
@<TRIPOS>BOND
     1     1     2    1
     2     2     3    2
     3     3     4    1
     4     4     5    2
     5     5     6    1
     6     6     7    2
     7     7     8    1
     8     8     9    2
     9     9    10    1
    10    10    11    1
    11    11    12    1
    12    12    13    2
    13    13    14    1
    14    14    15    2
    15    15    16    1
    16    16    17    1
    17    16    18    2
    18    16    19    2
    19    15    20    1
    20    20    21    2
    21    10    22    2
    22     5    23    1
    23    23    24    1
    24    24    25    1
    25    24    26    1
    26    23     2    1
    27    22     6    1
    28    21    12    1
@<TRIPOS>SUBSTRUCTURE
     1 RES1        1 GROUP             0 ****  ****    0  
@<TRIPOS>MOLECULE
ligand_8
    26    28     1     0     0
SMALL
NO_CHARGES
****
Generated from the CSD

@<TRIPOS>ATOM
     1 C1      28.6946  14.8090  13.9746   C.3       1 RES1   0.0000
     2 C2      29.8577  13.8914  13.8719   C.2       1 RES1   0.0000
     3 N3      30.0436  12.8310  14.6464   N.2       1 RES1   0.0000
     4 C4      31.2280  12.2756  14.2353   C.2       1 RES1   0.0000
     5 C5      31.7850  12.9850  13.2080   C.2       1 RES1   0.0000
     6 C6      33.0450  12.7100  12.5110   C.2       1 RES1   0.0000
     7 C7      33.8664  11.6591  12.9033   C.2       1 RES1   0.0000
     8 C8      35.0468  11.4793  12.2095   C.2       1 RES1   0.0000
     9 N9      35.4320  12.2773  11.2105   N.2       1 RES1   0.0000
    10 C10     34.5903  13.2923  10.8883   C.2       1 RES1   0.0000
    11 N11     35.0355  14.0900   9.8673   N.2       1 RES1   0.0000
    12 C12     34.4691  15.2329   9.2522   C.2       1 RES1   0.0000
    13 C13     34.5793  15.5242   7.8851   C.2       1 RES1   0.0000
    14 C14     34.0049  16.6662   7.3584   C.2       1 RES1   0.0000
    15 C15     33.3233  17.5350   8.1956   C.2       1 RES1   0.0000
    16 S16     32.5815  19.0018   7.5440   S.o2      1 RES1   0.0000
    17 C17     31.0491  18.4679   6.8830   C.3       1 RES1   0.0000
    18 O18     32.3193  19.8710   8.6486   O.2       1 RES1   0.0000
    19 O19     33.3858  19.4959   6.4649   O.2       1 RES1   0.0000
    20 C20     33.2241  17.2786   9.5537   C.2       1 RES1   0.0000
    21 C21     33.7866  16.1340  10.0783   C.2       1 RES1   0.0000
    22 N22     33.4226  13.5449  11.5217   N.2       1 RES1   0.0000
    23 N23     30.8909  14.0402  12.9445   N.pl3     1 RES1   0.0000
    24 C24     31.0107  15.1022  11.9375   C.3       1 RES1   0.0000
    25 C25     31.2235  16.4593  12.5936   C.3       1 RES1   0.0000
    26 C26     29.8625  15.0826  10.9325   C.3       1 RES1   0.0000
@<TRIPOS>BOND
     1     1     2    1
     2     2     3    2
     3     3     4    1
     4     4     5    2
     5     5     6    1
     6     6     7    2
     7     7     8    1
     8     8     9    2
     9     9    10    1
    10    10    11    1
    11    11    12    1
    12    12    13    2
    13    13    14    1
    14    14    15    2
    15    15    16    1
    16    16    17    1
    17    16    18    2
    18    16    19    2
    19    15    20    1
    20    20    21    2
    21    10    22    2
    22     5    23    1
    23    23    24    1
    24    24    25    1
    25    24    26    1
    26    23     2    1
    27    22     6    1
    28    21    12    1
@<TRIPOS>SUBSTRUCTURE
     1 RES1        1 GROUP             0 ****  ****    0  
@<TRIPOS>MOLECULE
ligand_9
    26    28     1     0     0
SMALL
NO_CHARGES
****
Generated from the CSD

@<TRIPOS>ATOM
     1 C1      28.6952  14.8097  13.9755   C.3       1 RES1   0.0000
     2 C2      29.8580  13.8917  13.8722   C.2       1 RES1   0.0000
     3 N3      30.0433  12.8307  14.6460   N.2       1 RES1   0.0000
     4 C4      31.2275  12.2751  14.2347   C.2       1 RES1   0.0000
     5 C5      31.7850  12.9850  13.2080   C.2       1 RES1   0.0000
     6 C6      33.0450  12.7100  12.5110   C.2       1 RES1   0.0000
     7 C7      33.8664  11.6591  12.9033   C.2       1 RES1   0.0000
     8 C8      35.0468  11.4793  12.2095   C.2       1 RES1   0.0000
     9 N9      35.4320  12.2773  11.2105   N.2       1 RES1   0.0000
    10 C10     34.5903  13.2923  10.8883   C.2       1 RES1   0.0000
    11 N11     35.0355  14.0900   9.8673   N.2       1 RES1   0.0000
    12 C12     36.1985  14.0244   9.0620   C.2       1 RES1   0.0000
    13 C13     36.9297  15.1462   8.6465   C.2       1 RES1   0.0000
    14 C14     38.0524  15.0023   7.8526   C.2       1 RES1   0.0000
    15 C15     38.4496  13.7352   7.4565   C.2       1 RES1   0.0000
    16 S16     39.8818  13.5275   6.4406   S.o2      1 RES1   0.0000
    17 C17     41.2300  13.5792   7.5586   C.3       1 RES1   0.0000
    18 O18     39.8136  12.2161   5.8747   O.2       1 RES1   0.0000
    19 O19     39.9946  14.6472   5.5524   O.2       1 RES1   0.0000
    20 C20     37.7268  12.6153   7.8354   C.2       1 RES1   0.0000
    21 C21     36.6136  12.7566   8.6369   C.2       1 RES1   0.0000
    22 N22     33.4226  13.5449  11.5217   N.2       1 RES1   0.0000
    23 N23     30.8914  14.0407  12.9451   N.pl3     1 RES1   0.0000
    24 C24     31.0118  15.1034  11.9389   C.3       1 RES1   0.0000
    25 C25     31.2225  16.4603  12.5962   C.3       1 RES1   0.0000
    26 C26     29.8650  15.0835  10.9323   C.3       1 RES1   0.0000
@<TRIPOS>BOND
     1     1     2    1
     2     2     3    2
     3     3     4    1
     4     4     5    2
     5     5     6    1
     6     6     7    2
     7     7     8    1
     8     8     9    2
     9     9    10    1
    10    10    11    1
    11    11    12    1
    12    12    13    2
    13    13    14    1
    14    14    15    2
    15    15    16    1
    16    16    17    1
    17    16    18    2
    18    16    19    2
    19    15    20    1
    20    20    21    2
    21    10    22    2
    22     5    23    1
    23    23    24    1
    24    24    25    1
    25    24    26    1
    26    23     2    1
    27    22     6    1
    28    21    12    1
@<TRIPOS>SUBSTRUCTURE
     1 RES1        1 GROUP             0 ****  ****    0  
@<TRIPOS>MOLECULE
ligand_10
    26    28     1     0     0
SMALL
NO_CHARGES
****
Generated from the CSD

@<TRIPOS>ATOM
     1 C1      28.7052  14.8207  13.9891   C.3       1 RES1   0.0000
     2 C2      29.8622  13.8964  13.8780   C.2       1 RES1   0.0000
     3 N3      30.0385  12.8251  14.6397   N.2       1 RES1   0.0000
     4 C4      31.2202  12.2667  14.2249   C.2       1 RES1   0.0000
     5 C5      31.7850  12.9850  13.2080   C.2       1 RES1   0.0000
     6 C6      33.0450  12.7100  12.5110   C.2       1 RES1   0.0000
     7 C7      33.8664  11.6591  12.9033   C.2       1 RES1   0.0000
     8 C8      35.0468  11.4793  12.2095   C.2       1 RES1   0.0000
     9 N9      35.4320  12.2773  11.2105   N.2       1 RES1   0.0000
    10 C10     34.5903  13.2923  10.8883   C.2       1 RES1   0.0000
    11 N11     35.0355  14.0900   9.8673   N.2       1 RES1   0.0000
    12 C12     36.1984  14.0243   9.0619   C.2       1 RES1   0.0000
    13 C13     36.9298  15.1461   8.6465   C.2       1 RES1   0.0000
    14 C14     38.0524  15.0021   7.8525   C.2       1 RES1   0.0000
    15 C15     38.4494  13.7349   7.4562   C.2       1 RES1   0.0000
    16 S16     39.8815  13.5271   6.4402   S.o2      1 RES1   0.0000
    17 C17     41.2298  13.5785   7.5581   C.3       1 RES1   0.0000
    18 O18     39.8130  12.2159   5.8741   O.2       1 RES1   0.0000
    19 O19     39.9944  14.6470   5.5521   O.2       1 RES1   0.0000
    20 C20     37.7265  12.6152   7.8351   C.2       1 RES1   0.0000
    21 C21     36.6133  12.7565   8.6366   C.2       1 RES1   0.0000
    22 N22     33.4226  13.5449  11.5217   N.2       1 RES1   0.0000
    23 N23     30.8989  14.0496  12.9553   N.pl3     1 RES1   0.0000
    24 C24     31.0289  15.1233  11.9621   C.3       1 RES1   0.0000
    25 C25     30.9445  14.5733  10.5451   C.3       1 RES1   0.0000
    26 C26     32.2566  15.9960  12.2067   C.3       1 RES1   0.0000
@<TRIPOS>BOND
     1     1     2    1
     2     2     3    2
     3     3     4    1
     4     4     5    2
     5     5     6    1
     6     6     7    2
     7     7     8    1
     8     8     9    2
     9     9    10    1
    10    10    11    1
    11    11    12    1
    12    12    13    2
    13    13    14    1
    14    14    15    2
    15    15    16    1
    16    16    17    1
    17    16    18    2
    18    16    19    2
    19    15    20    1
    20    20    21    2
    21    10    22    2
    22     5    23    1
    23    23    24    1
    24    24    25    1
    25    24    26    1
    26    23     2    1
    27    22     6    1
    28    21    12    1
@<TRIPOS>SUBSTRUCTURE
     1 RES1        1 GROUP             0 ****  ****    0  
@<TRIPOS>MOLECULE
ligand_11
    26    28     1     0     0
SMALL
NO_CHARGES
****
Generated from the CSD

@<TRIPOS>ATOM
     1 C1      28.6964  14.8110  13.9770   C.3       1 RES1   0.0000
     2 C2      29.8585  13.8923  13.8729   C.2       1 RES1   0.0000
     3 N3      30.0427  12.8300  14.6453   N.2       1 RES1   0.0000
     4 C4      31.2267  12.2741  14.2336   C.2       1 RES1   0.0000
     5 C5      31.7850  12.9850  13.2080   C.2       1 RES1   0.0000
     6 C6      33.0450  12.7100  12.5110   C.2       1 RES1   0.0000
     7 C7      33.8664  11.6591  12.9033   C.2       1 RES1   0.0000
     8 C8      35.0468  11.4793  12.2095   C.2       1 RES1   0.0000
     9 N9      35.4320  12.2773  11.2105   N.2       1 RES1   0.0000
    10 C10     34.5903  13.2923  10.8883   C.2       1 RES1   0.0000
    11 N11     35.0355  14.0900   9.8673   N.2       1 RES1   0.0000
    12 C12     34.4653  15.2281   9.2468   C.2       1 RES1   0.0000
    13 C13     33.0896  15.4025   9.0396   C.2       1 RES1   0.0000
    14 C14     32.6083  16.5397   8.4178   C.2       1 RES1   0.0000
    15 C15     33.4988  17.5100   7.9866   C.2       1 RES1   0.0000
    16 S16     32.9057  18.9720   7.1884   S.o2      1 RES1   0.0000
    17 C17     32.4210  20.0279   8.5000   C.3       1 RES1   0.0000
    18 O18     34.0174  19.5681   6.5152   O.2       1 RES1   0.0000
    19 O19     31.7389  18.6481   6.4209   O.2       1 RES1   0.0000
    20 C20     34.8639  17.3457   8.1592   C.2       1 RES1   0.0000
    21 C21     35.3445  16.2173   8.7896   C.2       1 RES1   0.0000
    22 N22     33.4226  13.5449  11.5217   N.2       1 RES1   0.0000
    23 N23     30.8922  14.0418  12.9463   N.pl3     1 RES1   0.0000
    24 C24     31.0138  15.1057  11.9416   C.3       1 RES1   0.0000
    25 C25     31.1964  16.4654  12.6014   C.3       1 RES1   0.0000
    26 C26     29.8828  15.0703  10.9176   C.3       1 RES1   0.0000
@<TRIPOS>BOND
     1     1     2    1
     2     2     3    2
     3     3     4    1
     4     4     5    2
     5     5     6    1
     6     6     7    2
     7     7     8    1
     8     8     9    2
     9     9    10    1
    10    10    11    1
    11    11    12    1
    12    12    13    2
    13    13    14    1
    14    14    15    2
    15    15    16    1
    16    16    17    1
    17    16    18    2
    18    16    19    2
    19    15    20    1
    20    20    21    2
    21    10    22    2
    22     5    23    1
    23    23    24    1
    24    24    25    1
    25    24    26    1
    26    23     2    1
    27    22     6    1
    28    21    12    1
@<TRIPOS>SUBSTRUCTURE
     1 RES1        1 GROUP             0 ****  ****    0  
@<TRIPOS>MOLECULE
ligand_12
    26    28     1     0     0
SMALL
NO_CHARGES
****
Generated from the CSD

@<TRIPOS>ATOM
     1 C1      28.6725  14.7836  13.9447   C.3       1 RES1   0.0000
     2 C2      29.8484  13.8806  13.8593   C.2       1 RES1   0.0000
     3 N3      30.0540  12.8438  14.6603   N.2       1 RES1   0.0000
     4 C4      31.2441  12.2949  14.2569   C.2       1 RES1   0.0000
     5 C5      31.7850  12.9850  13.2080   C.2       1 RES1   0.0000
     6 C6      33.0450  12.7100  12.5110   C.2       1 RES1   0.0000
     7 C7      33.4902  11.4063  12.3230   C.2       1 RES1   0.0000
     8 C8      34.6977  11.2321  11.6759   C.2       1 RES1   0.0000
     9 N9      35.4502  12.2513  11.2537   N.2       1 RES1   0.0000
    10 C10     34.9636  13.4978  11.4820   C.2       1 RES1   0.0000
    11 N11     35.7772  14.5087  11.0429   N.2       1 RES1   0.0000
    12 C12     35.6281  15.9166  11.0758   C.2       1 RES1   0.0000
    13 C13     34.4627  16.5728  11.4967   C.2       1 RES1   0.0000
    14 C14     34.3897  17.9534  11.4929   C.2       1 RES1   0.0000
    15 C15     35.4780  18.6926  11.0576   C.2       1 RES1   0.0000
    16 S16     35.4067  20.4593  11.0434   S.o2      1 RES1   0.0000
    17 C17     35.0072  20.8738   9.3885   C.3       1 RES1   0.0000
    18 O18     34.3156  20.8462  11.8826   O.2       1 RES1   0.0000
    19 O19     36.7086  20.9846  11.3339   O.2       1 RES1   0.0000
    20 C20     36.6301  18.0633  10.6140   C.2       1 RES1   0.0000
    21 C21     36.7084  16.6866  10.6282   C.2       1 RES1   0.0000
    22 N22     33.7977  13.7569  12.1161   N.2       1 RES1   0.0000
    23 N23     30.8741  14.0198  12.9221   N.pl3     1 RES1   0.0000
    24 C24     30.9728  15.0565  11.8869   C.3       1 RES1   0.0000
    25 C25     31.1579  16.4348  12.5062   C.3       1 RES1   0.0000
    26 C26     29.8254  14.9867  10.8831   C.3       1 RES1   0.0000
@<TRIPOS>BOND
     1     1     2    1
     2     2     3    2
     3     3     4    1
     4     4     5    2
     5     5     6    1
     6     6     7    2
     7     7     8    1
     8     8     9    2
     9     9    10    1
    10    10    11    1
    11    11    12    1
    12    12    13    2
    13    13    14    1
    14    14    15    2
    15    15    16    1
    16    16    17    1
    17    16    18    2
    18    16    19    2
    19    15    20    1
    20    20    21    2
    21    10    22    2
    22     5    23    1
    23    23    24    1
    24    24    25    1
    25    24    26    1
    26    23     2    1
    27    22     6    1
    28    21    12    1
@<TRIPOS>SUBSTRUCTURE
     1 RES1        1 GROUP             0 ****  ****    0  
@<TRIPOS>MOLECULE
ligand_13
    26    28     1     0     0
SMALL
NO_CHARGES
****
Generated from the CSD

@<TRIPOS>ATOM
     1 C1      28.7355  14.8526  14.0314   C.3       1 RES1   0.0000
     2 C2      29.8751  13.9101  13.8959   C.2       1 RES1   0.0000
     3 N3      30.0241  12.8090  14.6200   N.2       1 RES1   0.0000
     4 C4      31.1979  12.2422  14.1942   C.2       1 RES1   0.0000
     5 C5      31.7850  12.9850  13.2080   C.2       1 RES1   0.0000
     6 C6      33.0450  12.7100  12.5110   C.2       1 RES1   0.0000
     7 C7      34.1641  12.2619  13.2037   C.2       1 RES1   0.0000
     8 C8      35.3191  12.0464  12.4779   C.2       1 RES1   0.0000
     9 N9      35.4053  12.2714  11.1645   N.2       1 RES1   0.0000
    10 C10     34.2803  12.7219  10.5528   C.2       1 RES1   0.0000
    11 N11     34.4228  12.9501   9.2096   N.2       1 RES1   0.0000
    12 C12     33.5185  13.4464   8.2394   C.2       1 RES1   0.0000
    13 C13     33.7693  13.4462   6.8599   C.2       1 RES1   0.0000
    14 C14     32.8392  13.9567   5.9735   C.2       1 RES1   0.0000
    15 C15     31.6525  14.4830   6.4583   C.2       1 RES1   0.0000
    16 S16     30.4489  15.1420   5.3431   S.o2      1 RES1   0.0000
    17 C17     30.7257  16.8721   5.3634   C.3       1 RES1   0.0000
    18 O18     30.7647  14.6487   4.0387   O.2       1 RES1   0.0000
    19 O19     29.1375  14.8930   5.8660   O.2       1 RES1   0.0000
    20 C20     31.3957  14.5156   7.8195   C.2       1 RES1   0.0000
    21 C21     32.3175  13.9962   8.7039   C.2       1 RES1   0.0000
    22 N22     33.1128  12.9683  11.1892   N.2       1 RES1   0.0000
    23 N23     30.9221  14.0753  12.9870   N.pl3     1 RES1   0.0000
    24 C24     31.0812  15.1810  12.0339   C.3       1 RES1   0.0000
    25 C25     31.2822  16.5050  12.7577   C.3       1 RES1   0.0000
    26 C26     29.9655  15.2165  10.9933   C.3       1 RES1   0.0000
@<TRIPOS>BOND
     1     1     2    1
     2     2     3    2
     3     3     4    1
     4     4     5    2
     5     5     6    1
     6     6     7    2
     7     7     8    1
     8     8     9    2
     9     9    10    1
    10    10    11    1
    11    11    12    1
    12    12    13    2
    13    13    14    1
    14    14    15    2
    15    15    16    1
    16    16    17    1
    17    16    18    2
    18    16    19    2
    19    15    20    1
    20    20    21    2
    21    10    22    2
    22     5    23    1
    23    23    24    1
    24    24    25    1
    25    24    26    1
    26    23     2    1
    27    22     6    1
    28    21    12    1
@<TRIPOS>SUBSTRUCTURE
     1 RES1        1 GROUP             0 ****  ****    0  
@<TRIPOS>MOLECULE
ligand_14
    26    28     1     0     0
SMALL
NO_CHARGES
****
Generated from the CSD

@<TRIPOS>ATOM
     1 C1      28.6725  14.7836  13.9447   C.3       1 RES1   0.0000
     2 C2      29.8484  13.8806  13.8593   C.2       1 RES1   0.0000
     3 N3      30.0540  12.8438  14.6603   N.2       1 RES1   0.0000
     4 C4      31.2441  12.2949  14.2569   C.2       1 RES1   0.0000
     5 C5      31.7850  12.9850  13.2080   C.2       1 RES1   0.0000
     6 C6      33.0450  12.7100  12.5110   C.2       1 RES1   0.0000
     7 C7      33.4902  11.4063  12.3230   C.2       1 RES1   0.0000
     8 C8      34.6977  11.2321  11.6759   C.2       1 RES1   0.0000
     9 N9      35.4502  12.2513  11.2537   N.2       1 RES1   0.0000
    10 C10     34.9636  13.4978  11.4820   C.2       1 RES1   0.0000
    11 N11     35.7772  14.5087  11.0429   N.2       1 RES1   0.0000
    12 C12     35.6281  15.9166  11.0758   C.2       1 RES1   0.0000
    13 C13     34.4627  16.5728  11.4967   C.2       1 RES1   0.0000
    14 C14     34.3897  17.9534  11.4929   C.2       1 RES1   0.0000
    15 C15     35.4780  18.6926  11.0576   C.2       1 RES1   0.0000
    16 S16     35.4067  20.4593  11.0434   S.o2      1 RES1   0.0000
    17 C17     35.7705  20.9311  12.6912   C.3       1 RES1   0.0000
    18 O18     36.4636  20.9194  10.1974   O.2       1 RES1   0.0000
    19 O19     34.0669  20.8733  10.7454   O.2       1 RES1   0.0000
    20 C20     36.6301  18.0633  10.6140   C.2       1 RES1   0.0000
    21 C21     36.7084  16.6866  10.6282   C.2       1 RES1   0.0000
    22 N22     33.7977  13.7569  12.1161   N.2       1 RES1   0.0000
    23 N23     30.8741  14.0198  12.9221   N.pl3     1 RES1   0.0000
    24 C24     30.9728  15.0565  11.8869   C.3       1 RES1   0.0000
    25 C25     31.1579  16.4348  12.5062   C.3       1 RES1   0.0000
    26 C26     29.8254  14.9867  10.8831   C.3       1 RES1   0.0000
@<TRIPOS>BOND
     1     1     2    1
     2     2     3    2
     3     3     4    1
     4     4     5    2
     5     5     6    1
     6     6     7    2
     7     7     8    1
     8     8     9    2
     9     9    10    1
    10    10    11    1
    11    11    12    1
    12    12    13    2
    13    13    14    1
    14    14    15    2
    15    15    16    1
    16    16    17    1
    17    16    18    2
    18    16    19    2
    19    15    20    1
    20    20    21    2
    21    10    22    2
    22     5    23    1
    23    23    24    1
    24    24    25    1
    25    24    26    1
    26    23     2    1
    27    22     6    1
    28    21    12    1
@<TRIPOS>SUBSTRUCTURE
     1 RES1        1 GROUP             0 ****  ****    0  
@<TRIPOS>MOLECULE
ligand_15
    26    28     1     0     0
SMALL
NO_CHARGES
****
Generated from the CSD

@<TRIPOS>ATOM
     1 C1      28.7561  14.8729  14.0606   C.3       1 RES1   0.0000
     2 C2      29.8838  13.9187  13.9082   C.2       1 RES1   0.0000
     3 N3      30.0144  12.7987  14.6064   N.2       1 RES1   0.0000
     4 C4      31.1829  12.2267  14.1731   C.2       1 RES1   0.0000
     5 C5      31.7850  12.9850  13.2080   C.2       1 RES1   0.0000
     6 C6      33.0450  12.7100  12.5110   C.2       1 RES1   0.0000
     7 C7      33.1764  12.9478  11.1475   C.2       1 RES1   0.0000
     8 C8      34.3887  12.6424  10.5610   C.2       1 RES1   0.0000
     9 N9      35.4117  12.1146  11.2379   N.2       1 RES1   0.0000
    10 C10     35.2113  11.8945  12.5623   C.2       1 RES1   0.0000
    11 N11     36.2841  11.3404  13.2094   N.2       1 RES1   0.0000
    12 C12     36.4809  10.9808  14.5649   C.2       1 RES1   0.0000
    13 C13     35.5698  11.2639  15.5923   C.2       1 RES1   0.0000
    14 C14     35.8364  10.8873  16.8955   C.2       1 RES1   0.0000
    15 C15     37.0226  10.2328  17.1871   C.2       1 RES1   0.0000
    16 S16     37.3847   9.7425  18.8469   S.o2      1 RES1   0.0000
    17 C17     38.4292  11.0063  19.4649   C.3       1 RES1   0.0000
    18 O18     36.1553   9.7748  19.5763   O.2       1 RES1   0.0000
    19 O19     38.1303   8.5182  18.8233   O.2       1 RES1   0.0000
    20 C20     37.9477   9.9656  16.1908   C.2       1 RES1   0.0000
    21 C21     37.6779  10.3304  14.8886   C.2       1 RES1   0.0000
    22 N22     34.0543  12.1550  13.2121   N.2       1 RES1   0.0000
    23 N23     30.9378  14.0918  13.0089   N.pl3     1 RES1   0.0000
    24 C24     31.1167  15.2177  12.0835   C.3       1 RES1   0.0000
    25 C25     31.3119  16.5243  12.8399   C.3       1 RES1   0.0000
    26 C26     30.0176  15.2818  11.0266   C.3       1 RES1   0.0000
@<TRIPOS>BOND
     1     1     2    1
     2     2     3    2
     3     3     4    1
     4     4     5    2
     5     5     6    1
     6     6     7    2
     7     7     8    1
     8     8     9    2
     9     9    10    1
    10    10    11    1
    11    11    12    1
    12    12    13    2
    13    13    14    1
    14    14    15    2
    15    15    16    1
    16    16    17    1
    17    16    18    2
    18    16    19    2
    19    15    20    1
    20    20    21    2
    21    10    22    2
    22     5    23    1
    23    23    24    1
    24    24    25    1
    25    24    26    1
    26    23     2    1
    27    22     6    1
    28    21    12    1
@<TRIPOS>SUBSTRUCTURE
     1 RES1        1 GROUP             0 ****  ****    0  
@<TRIPOS>MOLECULE
ligand_16
    26    28     1     0     0
SMALL
NO_CHARGES
****
Generated from the CSD

@<TRIPOS>ATOM
     1 C1      28.6166  14.7131  13.8714   C.3       1 RES1   0.0000
     2 C2      29.8247  13.8506  13.8283   C.2       1 RES1   0.0000
     3 N3      30.0805  12.8791  14.6942   N.2       1 RES1   0.0000
     4 C4      31.2850  12.3485  14.3097   C.2       1 RES1   0.0000
     5 C5      31.7850  12.9850  13.2080   C.2       1 RES1   0.0000
     6 C6      33.0450  12.7100  12.5110   C.2       1 RES1   0.0000
     7 C7      33.8008  13.7406  11.9635   C.2       1 RES1   0.0000
     8 C8      34.9645  13.3969  11.3042   C.2       1 RES1   0.0000
     9 N9      35.3700  12.1333  11.1553   N.2       1 RES1   0.0000
    10 C10     34.5781  11.1756  11.7013   C.2       1 RES1   0.0000
    11 N11     35.0292   9.8962  11.5107   N.2       1 RES1   0.0000
    12 C12     34.5115   8.6453  11.9263   C.2       1 RES1   0.0000
    13 C13     33.4085   8.4967  12.7790   C.2       1 RES1   0.0000
    14 C14     32.9658   7.2398  13.1475   C.2       1 RES1   0.0000
    15 C15     33.6285   6.1179  12.6757   C.2       1 RES1   0.0000
    16 S16     33.0802   4.5007  13.1345   S.o2      1 RES1   0.0000
    17 C17     34.1294   4.0358  14.4587   C.3       1 RES1   0.0000
    18 O18     31.7482   4.6315  13.6374   O.2       1 RES1   0.0000
    19 O19     33.3108   3.5991  12.0440   O.2       1 RES1   0.0000
    20 C20     34.7358   6.2432  11.8521   C.2       1 RES1   0.0000
    21 C21     35.1713   7.4960  11.4745   C.2       1 RES1   0.0000
    22 N22     33.4198  11.4243  12.3533   N.2       1 RES1   0.0000
    23 N23     30.8316  13.9634  12.8675   N.pl3     1 RES1   0.0000
    24 C24     30.8767  14.9301  11.7631   C.3       1 RES1   0.0000
    25 C25     31.0866  16.3461  12.2812   C.3       1 RES1   0.0000
    26 C26     29.6826  14.7943  10.8225   C.3       1 RES1   0.0000
@<TRIPOS>BOND
     1     1     2    1
     2     2     3    2
     3     3     4    1
     4     4     5    2
     5     5     6    1
     6     6     7    2
     7     7     8    1
     8     8     9    2
     9     9    10    1
    10    10    11    1
    11    11    12    1
    12    12    13    2
    13    13    14    1
    14    14    15    2
    15    15    16    1
    16    16    17    1
    17    16    18    2
    18    16    19    2
    19    15    20    1
    20    20    21    2
    21    10    22    2
    22     5    23    1
    23    23    24    1
    24    24    25    1
    25    24    26    1
    26    23     2    1
    27    22     6    1
    28    21    12    1
@<TRIPOS>SUBSTRUCTURE
     1 RES1        1 GROUP             0 ****  ****    0  
@<TRIPOS>MOLECULE
ligand_17
    26    28     1     0     0
SMALL
NO_CHARGES
****
Generated from the CSD

@<TRIPOS>ATOM
     1 C1      28.7559  14.8727  14.0603   C.3       1 RES1   0.0000
     2 C2      29.8837  13.9186  13.9081   C.2       1 RES1   0.0000
     3 N3      30.0144  12.7988  14.6065   N.2       1 RES1   0.0000
     4 C4      31.1830  12.2268  14.1733   C.2       1 RES1   0.0000
     5 C5      31.7850  12.9850  13.2080   C.2       1 RES1   0.0000
     6 C6      33.0450  12.7100  12.5110   C.2       1 RES1   0.0000
     7 C7      33.1764  12.9478  11.1475   C.2       1 RES1   0.0000
     8 C8      34.3887  12.6424  10.5610   C.2       1 RES1   0.0000
     9 N9      35.4117  12.1146  11.2379   N.2       1 RES1   0.0000
    10 C10     35.2113  11.8945  12.5623   C.2       1 RES1   0.0000
    11 N11     36.2841  11.3404  13.2094   N.2       1 RES1   0.0000
    12 C12     36.4595  10.9235  14.5514   C.2       1 RES1   0.0000
    13 C13     37.6937  10.5506  15.1024   C.2       1 RES1   0.0000
    14 C14     37.7842  10.1461  16.4214   C.2       1 RES1   0.0000
    15 C15     36.6392  10.0997  17.2005   C.2       1 RES1   0.0000
    16 S16     36.7312   9.5848  18.8896   S.o2      1 RES1   0.0000
    17 C17     36.2654   7.8958  18.8644   C.3       1 RES1   0.0000
    18 O18     38.1028   9.6698  19.2845   O.2       1 RES1   0.0000
    19 O19     35.7565  10.3059  19.6546   O.2       1 RES1   0.0000
    20 C20     35.4059  10.4402  16.6684   C.2       1 RES1   0.0000
    21 C21     35.3160  10.8549  15.3564   C.2       1 RES1   0.0000
    22 N22     34.0543  12.1550  13.2121   N.2       1 RES1   0.0000
    23 N23     30.9377  14.0916  13.0087   N.pl3     1 RES1   0.0000
    24 C24     31.1164  15.2174  12.0830   C.3       1 RES1   0.0000
    25 C25     31.3108  16.5242  12.8391   C.3       1 RES1   0.0000
    26 C26     30.0176  15.2807  11.0258   C.3       1 RES1   0.0000
@<TRIPOS>BOND
     1     1     2    1
     2     2     3    2
     3     3     4    1
     4     4     5    2
     5     5     6    1
     6     6     7    2
     7     7     8    1
     8     8     9    2
     9     9    10    1
    10    10    11    1
    11    11    12    1
    12    12    13    2
    13    13    14    1
    14    14    15    2
    15    15    16    1
    16    16    17    1
    17    16    18    2
    18    16    19    2
    19    15    20    1
    20    20    21    2
    21    10    22    2
    22     5    23    1
    23    23    24    1
    24    24    25    1
    25    24    26    1
    26    23     2    1
    27    22     6    1
    28    21    12    1
@<TRIPOS>SUBSTRUCTURE
     1 RES1        1 GROUP             0 ****  ****    0  
@<TRIPOS>MOLECULE
ligand_18
    26    28     1     0     0
SMALL
NO_CHARGES
****
Generated from the CSD

@<TRIPOS>ATOM
     1 C1      28.6168  14.7134  13.8717   C.3       1 RES1   0.0000
     2 C2      29.8248  13.8507  13.8284   C.2       1 RES1   0.0000
     3 N3      30.0804  12.8789  14.6941   N.2       1 RES1   0.0000
     4 C4      31.2849  12.3482  14.3096   C.2       1 RES1   0.0000
     5 C5      31.7850  12.9850  13.2080   C.2       1 RES1   0.0000
     6 C6      33.0450  12.7100  12.5110   C.2       1 RES1   0.0000
     7 C7      33.8008  13.7406  11.9635   C.2       1 RES1   0.0000
     8 C8      34.9645  13.3969  11.3042   C.2       1 RES1   0.0000
     9 N9      35.3700  12.1333  11.1553   N.2       1 RES1   0.0000
    10 C10     34.5781  11.1756  11.7013   C.2       1 RES1   0.0000
    11 N11     35.0292   9.8962  11.5107   N.2       1 RES1   0.0000
    12 C12     34.4811   8.6422  11.8750   C.2       1 RES1   0.0000
    13 C13     35.1699   7.4253  11.7733   C.2       1 RES1   0.0000
    14 C14     34.5639   6.2385  12.1417   C.2       1 RES1   0.0000
    15 C15     33.2582   6.2549  12.6056   C.2       1 RES1   0.0000
    16 S16     32.4630   4.7491  13.0816   S.o2      1 RES1   0.0000
    17 C17     31.5078   4.2914  11.6858   C.3       1 RES1   0.0000
    18 O18     33.4875   3.7696  13.2693   O.2       1 RES1   0.0000
    19 O19     31.5669   5.0140  14.1689   O.2       1 RES1   0.0000
    20 C20     32.5513   7.4436  12.6903   C.2       1 RES1   0.0000
    21 C21     33.1585   8.6294  12.3342   C.2       1 RES1   0.0000
    22 N22     33.4198  11.4243  12.3533   N.2       1 RES1   0.0000
    23 N23     30.8317  13.9637  12.8677   N.pl3     1 RES1   0.0000
    24 C24     30.8771  14.9306  11.7636   C.3       1 RES1   0.0000
    25 C25     31.0876  16.3464  12.2821   C.3       1 RES1   0.0000
    26 C26     29.6828  14.7955  10.8231   C.3       1 RES1   0.0000
@<TRIPOS>BOND
     1     1     2    1
     2     2     3    2
     3     3     4    1
     4     4     5    2
     5     5     6    1
     6     6     7    2
     7     7     8    1
     8     8     9    2
     9     9    10    1
    10    10    11    1
    11    11    12    1
    12    12    13    2
    13    13    14    1
    14    14    15    2
    15    15    16    1
    16    16    17    1
    17    16    18    2
    18    16    19    2
    19    15    20    1
    20    20    21    2
    21    10    22    2
    22     5    23    1
    23    23    24    1
    24    24    25    1
    25    24    26    1
    26    23     2    1
    27    22     6    1
    28    21    12    1
@<TRIPOS>SUBSTRUCTURE
     1 RES1        1 GROUP             0 ****  ****    0  
@<TRIPOS>MOLECULE
ligand_19
    26    28     1     0     0
SMALL
NO_CHARGES
****
Generated from the CSD

@<TRIPOS>ATOM
     1 C1      28.7566  14.8733  14.0613   C.3       1 RES1   0.0000
     2 C2      29.8840  13.9189  13.9085   C.2       1 RES1   0.0000
     3 N3      30.0141  12.7984  14.6061   N.2       1 RES1   0.0000
     4 C4      31.1825  12.2263  14.1726   C.2       1 RES1   0.0000
     5 C5      31.7850  12.9850  13.2080   C.2       1 RES1   0.0000
     6 C6      33.0450  12.7100  12.5110   C.2       1 RES1   0.0000
     7 C7      33.1764  12.9478  11.1475   C.2       1 RES1   0.0000
     8 C8      34.3887  12.6424  10.5610   C.2       1 RES1   0.0000
     9 N9      35.4117  12.1146  11.2379   N.2       1 RES1   0.0000
    10 C10     35.2113  11.8945  12.5623   C.2       1 RES1   0.0000
    11 N11     36.2841  11.3404  13.2094   N.2       1 RES1   0.0000
    12 C12     37.5520  10.9212  12.7381   C.2       1 RES1   0.0000
    13 C13     37.9040  10.8587  11.3823   C.2       1 RES1   0.0000
    14 C14     39.1613  10.4304  10.9987   C.2       1 RES1   0.0000
    15 C15     40.0767  10.0494  11.9668   C.2       1 RES1   0.0000
    16 S16     41.6901   9.4975  11.4992   S.o2      1 RES1   0.0000
    17 C17     41.5847   7.7486  11.5221   C.3       1 RES1   0.0000
    18 O18     41.9082   9.9198  10.1506   O.2       1 RES1   0.0000
    19 O19     42.6336   9.9015  12.5001   O.2       1 RES1   0.0000
    20 C20     39.7406  10.0798  13.3108   C.2       1 RES1   0.0000
    21 C21     38.4909  10.5179  13.6953   C.2       1 RES1   0.0000
    22 N22     34.0543  12.1550  13.2121   N.2       1 RES1   0.0000
    23 N23     30.9382  14.0921  13.0095   N.pl3     1 RES1   0.0000
    24 C24     31.1175  15.2185  12.0846   C.3       1 RES1   0.0000
    25 C25     31.3158  16.5242  12.8419   C.3       1 RES1   0.0000
    26 C26     30.0171  15.2852  11.0294   C.3       1 RES1   0.0000
@<TRIPOS>BOND
     1     1     2    1
     2     2     3    2
     3     3     4    1
     4     4     5    2
     5     5     6    1
     6     6     7    2
     7     7     8    1
     8     8     9    2
     9     9    10    1
    10    10    11    1
    11    11    12    1
    12    12    13    2
    13    13    14    1
    14    14    15    2
    15    15    16    1
    16    16    17    1
    17    16    18    2
    18    16    19    2
    19    15    20    1
    20    20    21    2
    21    10    22    2
    22     5    23    1
    23    23    24    1
    24    24    25    1
    25    24    26    1
    26    23     2    1
    27    22     6    1
    28    21    12    1
@<TRIPOS>SUBSTRUCTURE
     1 RES1        1 GROUP             0 ****  ****    0  
@<TRIPOS>MOLECULE
ligand_20
    26    28     1     0     0
SMALL
NO_CHARGES
****
Generated from the CSD

@<TRIPOS>ATOM
     1 C1      28.6170  14.7136  13.8719   C.3       1 RES1   0.0000
     2 C2      29.8248  13.8508  13.8285   C.2       1 RES1   0.0000
     3 N3      30.0803  12.8788  14.6940   N.2       1 RES1   0.0000
     4 C4      31.2847  12.3481  14.3094   C.2       1 RES1   0.0000
     5 C5      31.7850  12.9850  13.2080   C.2       1 RES1   0.0000
     6 C6      33.0450  12.7100  12.5110   C.2       1 RES1   0.0000
     7 C7      33.8008  13.7406  11.9635   C.2       1 RES1   0.0000
     8 C8      34.9645  13.3969  11.3042   C.2       1 RES1   0.0000
     9 N9      35.3700  12.1333  11.1553   N.2       1 RES1   0.0000
    10 C10     34.5781  11.1756  11.7013   C.2       1 RES1   0.0000
    11 N11     35.0292   9.8962  11.5107   N.2       1 RES1   0.0000
    12 C12     36.1541   9.3901  10.8150   C.2       1 RES1   0.0000
    13 C13     36.9919  10.1697  10.0049   C.2       1 RES1   0.0000
    14 C14     38.0684   9.6011   9.3498   C.2       1 RES1   0.0000
    15 C15     38.3123   8.2441   9.4892   C.2       1 RES1   0.0000
    16 S16     39.6829   7.4955   8.6601   S.o2      1 RES1   0.0000
    17 C17     38.9930   6.7866   7.2138   C.3       1 RES1   0.0000
    18 O18     40.5685   8.5481   8.2697   O.2       1 RES1   0.0000
    19 O19     40.2024   6.4353   9.4734   O.2       1 RES1   0.0000
    20 C20     37.4821   7.4511  10.2650   C.2       1 RES1   0.0000
    21 C21     36.4148   8.0191  10.9283   C.2       1 RES1   0.0000
    22 N22     33.4198  11.4243  12.3533   N.2       1 RES1   0.0000
    23 N23     30.8319  13.9638  12.8679   N.pl3     1 RES1   0.0000
    24 C24     30.8774  14.9310  11.7639   C.3       1 RES1   0.0000
    25 C25     31.0893  16.3465  12.2827   C.3       1 RES1   0.0000
    26 C26     29.6825  14.7971  10.8241   C.3       1 RES1   0.0000
@<TRIPOS>BOND
     1     1     2    1
     2     2     3    2
     3     3     4    1
     4     4     5    2
     5     5     6    1
     6     6     7    2
     7     7     8    1
     8     8     9    2
     9     9    10    1
    10    10    11    1
    11    11    12    1
    12    12    13    2
    13    13    14    1
    14    14    15    2
    15    15    16    1
    16    16    17    1
    17    16    18    2
    18    16    19    2
    19    15    20    1
    20    20    21    2
    21    10    22    2
    22     5    23    1
    23    23    24    1
    24    24    25    1
    25    24    26    1
    26    23     2    1
    27    22     6    1
    28    21    12    1
@<TRIPOS>SUBSTRUCTURE
     1 RES1        1 GROUP             0 ****  ****    0  
@<TRIPOS>MOLECULE
ligand_21
    26    28     1     0     0
SMALL
NO_CHARGES
****
Generated from the CSD

@<TRIPOS>ATOM
     1 C1      28.7566  14.8733  14.0613   C.3       1 RES1   0.0000
     2 C2      29.8840  13.9189  13.9085   C.2       1 RES1   0.0000
     3 N3      30.0141  12.7984  14.6061   N.2       1 RES1   0.0000
     4 C4      31.1825  12.2263  14.1726   C.2       1 RES1   0.0000
     5 C5      31.7850  12.9850  13.2080   C.2       1 RES1   0.0000
     6 C6      33.0450  12.7100  12.5110   C.2       1 RES1   0.0000
     7 C7      33.1764  12.9478  11.1475   C.2       1 RES1   0.0000
     8 C8      34.3887  12.6424  10.5610   C.2       1 RES1   0.0000
     9 N9      35.4117  12.1146  11.2379   N.2       1 RES1   0.0000
    10 C10     35.2113  11.8945  12.5623   C.2       1 RES1   0.0000
    11 N11     36.2841  11.3404  13.2094   N.2       1 RES1   0.0000
    12 C12     37.5520  10.9212  12.7381   C.2       1 RES1   0.0000
    13 C13     37.9040  10.8587  11.3823   C.2       1 RES1   0.0000
    14 C14     39.1613  10.4304  10.9987   C.2       1 RES1   0.0000
    15 C15     40.0767  10.0494  11.9668   C.2       1 RES1   0.0000
    16 S16     41.6901   9.4975  11.4992   S.o2      1 RES1   0.0000
    17 C17     42.6050  10.9695  11.2416   C.3       1 RES1   0.0000
    18 O18     42.2456   8.8107  12.6235   O.2       1 RES1   0.0000
    19 O19     41.6046   8.8001  10.2495   O.2       1 RES1   0.0000
    20 C20     39.7406  10.0798  13.3108   C.2       1 RES1   0.0000
    21 C21     38.4909  10.5179  13.6953   C.2       1 RES1   0.0000
    22 N22     34.0543  12.1550  13.2121   N.2       1 RES1   0.0000
    23 N23     30.9382  14.0921  13.0095   N.pl3     1 RES1   0.0000
    24 C24     31.1175  15.2185  12.0846   C.3       1 RES1   0.0000
    25 C25     31.3158  16.5242  12.8419   C.3       1 RES1   0.0000
    26 C26     30.0171  15.2852  11.0294   C.3       1 RES1   0.0000
@<TRIPOS>BOND
     1     1     2    1
     2     2     3    2
     3     3     4    1
     4     4     5    2
     5     5     6    1
     6     6     7    2
     7     7     8    1
     8     8     9    2
     9     9    10    1
    10    10    11    1
    11    11    12    1
    12    12    13    2
    13    13    14    1
    14    14    15    2
    15    15    16    1
    16    16    17    1
    17    16    18    2
    18    16    19    2
    19    15    20    1
    20    20    21    2
    21    10    22    2
    22     5    23    1
    23    23    24    1
    24    24    25    1
    25    24    26    1
    26    23     2    1
    27    22     6    1
    28    21    12    1
@<TRIPOS>SUBSTRUCTURE
     1 RES1        1 GROUP             0 ****  ****    0  
@<TRIPOS>MOLECULE
ligand_22
    26    28     1     0     0
SMALL
NO_CHARGES
****
Generated from the CSD

@<TRIPOS>ATOM
     1 C1      28.6170  14.7136  13.8719   C.3       1 RES1   0.0000
     2 C2      29.8248  13.8508  13.8285   C.2       1 RES1   0.0000
     3 N3      30.0803  12.8788  14.6940   N.2       1 RES1   0.0000
     4 C4      31.2847  12.3481  14.3094   C.2       1 RES1   0.0000
     5 C5      31.7850  12.9850  13.2080   C.2       1 RES1   0.0000
     6 C6      33.0450  12.7100  12.5110   C.2       1 RES1   0.0000
     7 C7      33.8008  13.7406  11.9635   C.2       1 RES1   0.0000
     8 C8      34.9645  13.3969  11.3042   C.2       1 RES1   0.0000
     9 N9      35.3700  12.1333  11.1553   N.2       1 RES1   0.0000
    10 C10     34.5781  11.1756  11.7013   C.2       1 RES1   0.0000
    11 N11     35.0292   9.8962  11.5107   N.2       1 RES1   0.0000
    12 C12     36.1541   9.3901  10.8150   C.2       1 RES1   0.0000
    13 C13     36.9919  10.1697  10.0049   C.2       1 RES1   0.0000
    14 C14     38.0684   9.6011   9.3498   C.2       1 RES1   0.0000
    15 C15     38.3123   8.2441   9.4892   C.2       1 RES1   0.0000
    16 S16     39.6829   7.4955   8.6601   S.o2      1 RES1   0.0000
    17 C17     41.0605   7.8288   9.6903   C.3       1 RES1   0.0000
    18 O18     39.4545   6.0841   8.6529   O.2       1 RES1   0.0000
    19 O19     39.8923   8.1577   7.4058   O.2       1 RES1   0.0000
    20 C20     37.4821   7.4511  10.2650   C.2       1 RES1   0.0000
    21 C21     36.4148   8.0191  10.9283   C.2       1 RES1   0.0000
    22 N22     33.4198  11.4243  12.3533   N.2       1 RES1   0.0000
    23 N23     30.8319  13.9638  12.8679   N.pl3     1 RES1   0.0000
    24 C24     30.8774  14.9310  11.7639   C.3       1 RES1   0.0000
    25 C25     31.0893  16.3465  12.2827   C.3       1 RES1   0.0000
    26 C26     29.6825  14.7971  10.8241   C.3       1 RES1   0.0000
@<TRIPOS>BOND
     1     1     2    1
     2     2     3    2
     3     3     4    1
     4     4     5    2
     5     5     6    1
     6     6     7    2
     7     7     8    1
     8     8     9    2
     9     9    10    1
    10    10    11    1
    11    11    12    1
    12    12    13    2
    13    13    14    1
    14    14    15    2
    15    15    16    1
    16    16    17    1
    17    16    18    2
    18    16    19    2
    19    15    20    1
    20    20    21    2
    21    10    22    2
    22     5    23    1
    23    23    24    1
    24    24    25    1
    25    24    26    1
    26    23     2    1
    27    22     6    1
    28    21    12    1
@<TRIPOS>SUBSTRUCTURE
     1 RES1        1 GROUP             0 ****  ****    0  
@<TRIPOS>MOLECULE
ligand_23
    26    28     1     0     0
SMALL
NO_CHARGES
****
Generated from the CSD

@<TRIPOS>ATOM
     1 C1      28.7301  14.8471  14.0237   C.3       1 RES1   0.0000
     2 C2      29.8727  13.9077  13.8926   C.2       1 RES1   0.0000
     3 N3      30.0267  12.8118  14.6236   N.2       1 RES1   0.0000
     4 C4      31.2019  12.2465  14.1998   C.2       1 RES1   0.0000
     5 C5      31.7850  12.9850  13.2080   C.2       1 RES1   0.0000
     6 C6      33.0450  12.7100  12.5110   C.2       1 RES1   0.0000
     7 C7      34.1641  12.2619  13.2037   C.2       1 RES1   0.0000
     8 C8      35.3191  12.0464  12.4779   C.2       1 RES1   0.0000
     9 N9      35.4053  12.2714  11.1645   N.2       1 RES1   0.0000
    10 C10     34.2803  12.7219  10.5528   C.2       1 RES1   0.0000
    11 N11     34.4228  12.9501   9.2096   N.2       1 RES1   0.0000
    12 C12     33.5080  13.4127   8.2325   C.2       1 RES1   0.0000
    13 C13     32.4319  14.2683   8.5077   C.2       1 RES1   0.0000
    14 C14     31.5750  14.6708   7.5002   C.2       1 RES1   0.0000
    15 C15     31.7788  14.2130   6.2082   C.2       1 RES1   0.0000
    16 S16     30.6950  14.7142   4.9041   S.o2      1 RES1   0.0000
    17 C17     29.5606  13.3894   4.7364   C.3       1 RES1   0.0000
    18 O18     29.9817  15.8648   5.3643   O.2       1 RES1   0.0000
    19 O19     31.4428  14.8192   3.6855   O.2       1 RES1   0.0000
    20 C20     32.8214  13.3471   5.9196   C.2       1 RES1   0.0000
    21 C21     33.6837  12.9541   6.9213   C.2       1 RES1   0.0000
    22 N22     33.1128  12.9683  11.1892   N.2       1 RES1   0.0000
    23 N23     30.9179  14.0709  12.9813   N.pl3     1 RES1   0.0000
    24 C24     31.0718  15.1709  12.0208   C.3       1 RES1   0.0000
    25 C25     31.2709  16.5000  12.7359   C.3       1 RES1   0.0000
    26 C26     29.9535  15.1970  10.9827   C.3       1 RES1   0.0000
@<TRIPOS>BOND
     1     1     2    1
     2     2     3    2
     3     3     4    1
     4     4     5    2
     5     5     6    1
     6     6     7    2
     7     7     8    1
     8     8     9    2
     9     9    10    1
    10    10    11    1
    11    11    12    1
    12    12    13    2
    13    13    14    1
    14    14    15    2
    15    15    16    1
    16    16    17    1
    17    16    18    2
    18    16    19    2
    19    15    20    1
    20    20    21    2
    21    10    22    2
    22     5    23    1
    23    23    24    1
    24    24    25    1
    25    24    26    1
    26    23     2    1
    27    22     6    1
    28    21    12    1
@<TRIPOS>SUBSTRUCTURE
     1 RES1        1 GROUP             0 ****  ****    0  
@<TRIPOS>MOLECULE
ligand_24
    26    28     1     0     0
SMALL
NO_CHARGES
****
Generated from the CSD

@<TRIPOS>ATOM
     1 C1      28.6736  14.7848  13.9461   C.3       1 RES1   0.0000
     2 C2      29.8488  13.8811  13.8598   C.2       1 RES1   0.0000
     3 N3      30.0535  12.8432  14.6596   N.2       1 RES1   0.0000
     4 C4      31.2433  12.2940  14.2559   C.2       1 RES1   0.0000
     5 C5      31.7850  12.9850  13.2080   C.2       1 RES1   0.0000
     6 C6      33.0450  12.7100  12.5110   C.2       1 RES1   0.0000
     7 C7      33.4902  11.4063  12.3230   C.2       1 RES1   0.0000
     8 C8      34.6977  11.2321  11.6759   C.2       1 RES1   0.0000
     9 N9      35.4502  12.2513  11.2537   N.2       1 RES1   0.0000
    10 C10     34.9636  13.4978  11.4820   C.2       1 RES1   0.0000
    11 N11     35.7772  14.5087  11.0429   N.2       1 RES1   0.0000
    12 C12     37.0667  14.4905  10.4580   C.2       1 RES1   0.0000
    13 C13     37.4887  15.3807   9.4603   C.2       1 RES1   0.0000
    14 C14     38.7631  15.2951   8.9312   C.2       1 RES1   0.0000
    15 C15     39.6258  14.3109   9.3866   C.2       1 RES1   0.0000
    16 S16     41.2599  14.1822   8.7237   S.o2      1 RES1   0.0000
    17 C17     41.1488  12.9221   7.5112   C.3       1 RES1   0.0000
    18 O18     41.5491  15.4184   8.0660   O.2       1 RES1   0.0000
    19 O19     42.1511  13.7341   9.7534   O.2       1 RES1   0.0000
    20 C20     39.2203  13.4055  10.3540   C.2       1 RES1   0.0000
    21 C21     37.9534  13.4971  10.8909   C.2       1 RES1   0.0000
    22 N22     33.7977  13.7569  12.1161   N.2       1 RES1   0.0000
    23 N23     30.8749  14.0208  12.9232   N.pl3     1 RES1   0.0000
    24 C24     30.9746  15.0587  11.8893   C.3       1 RES1   0.0000
    25 C25     31.1468  16.4377  12.5107   C.3       1 RES1   0.0000
    26 C26     29.8348  14.9825  10.8773   C.3       1 RES1   0.0000
@<TRIPOS>BOND
     1     1     2    1
     2     2     3    2
     3     3     4    1
     4     4     5    2
     5     5     6    1
     6     6     7    2
     7     7     8    1
     8     8     9    2
     9     9    10    1
    10    10    11    1
    11    11    12    1
    12    12    13    2
    13    13    14    1
    14    14    15    2
    15    15    16    1
    16    16    17    1
    17    16    18    2
    18    16    19    2
    19    15    20    1
    20    20    21    2
    21    10    22    2
    22     5    23    1
    23    23    24    1
    24    24    25    1
    25    24    26    1
    26    23     2    1
    27    22     6    1
    28    21    12    1
@<TRIPOS>SUBSTRUCTURE
     1 RES1        1 GROUP             0 ****  ****    0  
@<TRIPOS>MOLECULE
ligand_25
    26    28     1     0     0
SMALL
NO_CHARGES
****
Generated from the CSD

@<TRIPOS>ATOM
     1 C1      28.7299  14.8469  14.0235   C.3       1 RES1   0.0000
     2 C2      29.8727  13.9076  13.8925   C.2       1 RES1   0.0000
     3 N3      30.0268  12.8119  14.6237   N.2       1 RES1   0.0000
     4 C4      31.2021  12.2466  14.2000   C.2       1 RES1   0.0000
     5 C5      31.7850  12.9850  13.2080   C.2       1 RES1   0.0000
     6 C6      33.0450  12.7100  12.5110   C.2       1 RES1   0.0000
     7 C7      34.1641  12.2619  13.2037   C.2       1 RES1   0.0000
     8 C8      35.3191  12.0464  12.4779   C.2       1 RES1   0.0000
     9 N9      35.4053  12.2714  11.1645   N.2       1 RES1   0.0000
    10 C10     34.2803  12.7219  10.5528   C.2       1 RES1   0.0000
    11 N11     34.4228  12.9501   9.2096   N.2       1 RES1   0.0000
    12 C12     35.5506  12.8690   8.3570   C.2       1 RES1   0.0000
    13 C13     35.4983  12.4321   7.0257   C.2       1 RES1   0.0000
    14 C14     36.6459  12.3724   6.2570   C.2       1 RES1   0.0000
    15 C15     37.8602  12.7389   6.8150   C.2       1 RES1   0.0000
    16 S16     39.3408  12.6698   5.8508   S.o2      1 RES1   0.0000
    17 C17     40.0859  11.1461   6.2907   C.3       1 RES1   0.0000
    18 O18     38.9493  12.6018   4.4773   O.2       1 RES1   0.0000
    19 O19     40.2166  13.7295   6.2575   O.2       1 RES1   0.0000
    20 C20     37.9377  13.1497   8.1361   C.2       1 RES1   0.0000
    21 C21     36.7921  13.2208   8.9004   C.2       1 RES1   0.0000
    22 N22     33.1128  12.9683  11.1892   N.2       1 RES1   0.0000
    23 N23     30.9178  14.0707  12.9811   N.pl3     1 RES1   0.0000
    24 C24     31.0715  15.1706  12.0204   C.3       1 RES1   0.0000
    25 C25     31.2701  16.4999  12.7351   C.3       1 RES1   0.0000
    26 C26     29.9534  15.1960  10.9821   C.3       1 RES1   0.0000
@<TRIPOS>BOND
     1     1     2    1
     2     2     3    2
     3     3     4    1
     4     4     5    2
     5     5     6    1
     6     6     7    2
     7     7     8    1
     8     8     9    2
     9     9    10    1
    10    10    11    1
    11    11    12    1
    12    12    13    2
    13    13    14    1
    14    14    15    2
    15    15    16    1
    16    16    17    1
    17    16    18    2
    18    16    19    2
    19    15    20    1
    20    20    21    2
    21    10    22    2
    22     5    23    1
    23    23    24    1
    24    24    25    1
    25    24    26    1
    26    23     2    1
    27    22     6    1
    28    21    12    1
@<TRIPOS>SUBSTRUCTURE
     1 RES1        1 GROUP             0 ****  ****    0  
@<TRIPOS>MOLECULE
ligand_26
    26    28     1     0     0
SMALL
NO_CHARGES
****
Generated from the CSD

@<TRIPOS>ATOM
     1 C1      28.6736  14.7848  13.9461   C.3       1 RES1   0.0000
     2 C2      29.8488  13.8811  13.8598   C.2       1 RES1   0.0000
     3 N3      30.0535  12.8432  14.6596   N.2       1 RES1   0.0000
     4 C4      31.2433  12.2940  14.2559   C.2       1 RES1   0.0000
     5 C5      31.7850  12.9850  13.2080   C.2       1 RES1   0.0000
     6 C6      33.0450  12.7100  12.5110   C.2       1 RES1   0.0000
     7 C7      33.4902  11.4063  12.3230   C.2       1 RES1   0.0000
     8 C8      34.6977  11.2321  11.6759   C.2       1 RES1   0.0000
     9 N9      35.4502  12.2513  11.2537   N.2       1 RES1   0.0000
    10 C10     34.9636  13.4978  11.4820   C.2       1 RES1   0.0000
    11 N11     35.7772  14.5087  11.0429   N.2       1 RES1   0.0000
    12 C12     37.0667  14.4905  10.4580   C.2       1 RES1   0.0000
    13 C13     37.4887  15.3807   9.4603   C.2       1 RES1   0.0000
    14 C14     38.7631  15.2951   8.9312   C.2       1 RES1   0.0000
    15 C15     39.6258  14.3109   9.3866   C.2       1 RES1   0.0000
    16 S16     41.2599  14.1822   8.7237   S.o2      1 RES1   0.0000
    17 C17     42.1910  15.3777   9.6035   C.3       1 RES1   0.0000
    18 O18     41.7542  12.8843   9.0635   O.2       1 RES1   0.0000
    19 O19     41.2377  14.5618   7.3414   O.2       1 RES1   0.0000
    20 C20     39.2203  13.4055  10.3540   C.2       1 RES1   0.0000
    21 C21     37.9534  13.4971  10.8909   C.2       1 RES1   0.0000
    22 N22     33.7977  13.7569  12.1161   N.2       1 RES1   0.0000
    23 N23     30.8749  14.0208  12.9232   N.pl3     1 RES1   0.0000
    24 C24     30.9746  15.0587  11.8893   C.3       1 RES1   0.0000
    25 C25     31.1468  16.4377  12.5107   C.3       1 RES1   0.0000
    26 C26     29.8348  14.9825  10.8773   C.3       1 RES1   0.0000
@<TRIPOS>BOND
     1     1     2    1
     2     2     3    2
     3     3     4    1
     4     4     5    2
     5     5     6    1
     6     6     7    2
     7     7     8    1
     8     8     9    2
     9     9    10    1
    10    10    11    1
    11    11    12    1
    12    12    13    2
    13    13    14    1
    14    14    15    2
    15    15    16    1
    16    16    17    1
    17    16    18    2
    18    16    19    2
    19    15    20    1
    20    20    21    2
    21    10    22    2
    22     5    23    1
    23    23    24    1
    24    24    25    1
    25    24    26    1
    26    23     2    1
    27    22     6    1
    28    21    12    1
@<TRIPOS>SUBSTRUCTURE
     1 RES1        1 GROUP             0 ****  ****    0  
@<TRIPOS>MOLECULE
ligand_27
    26    28     1     0     0
SMALL
NO_CHARGES
****
Generated from the CSD

@<TRIPOS>ATOM
     1 C1      28.7299  14.8469  14.0235   C.3       1 RES1   0.0000
     2 C2      29.8727  13.9076  13.8925   C.2       1 RES1   0.0000
     3 N3      30.0268  12.8119  14.6237   N.2       1 RES1   0.0000
     4 C4      31.2021  12.2466  14.2000   C.2       1 RES1   0.0000
     5 C5      31.7850  12.9850  13.2080   C.2       1 RES1   0.0000
     6 C6      33.0450  12.7100  12.5110   C.2       1 RES1   0.0000
     7 C7      34.1641  12.2619  13.2037   C.2       1 RES1   0.0000
     8 C8      35.3191  12.0464  12.4779   C.2       1 RES1   0.0000
     9 N9      35.4053  12.2714  11.1645   N.2       1 RES1   0.0000
    10 C10     34.2803  12.7219  10.5528   C.2       1 RES1   0.0000
    11 N11     34.4228  12.9501   9.2096   N.2       1 RES1   0.0000
    12 C12     35.5506  12.8690   8.3570   C.2       1 RES1   0.0000
    13 C13     35.4983  12.4321   7.0257   C.2       1 RES1   0.0000
    14 C14     36.6459  12.3724   6.2570   C.2       1 RES1   0.0000
    15 C15     37.8602  12.7389   6.8150   C.2       1 RES1   0.0000
    16 S16     39.3408  12.6698   5.8508   S.o2      1 RES1   0.0000
    17 C17     39.3384  14.1587   4.9271   C.3       1 RES1   0.0000
    18 O18     40.4421  12.7046   6.7620   O.2       1 RES1   0.0000
    19 O19     39.2523  11.5733   4.9314   O.2       1 RES1   0.0000
    20 C20     37.9377  13.1497   8.1361   C.2       1 RES1   0.0000
    21 C21     36.7921  13.2208   8.9004   C.2       1 RES1   0.0000
    22 N22     33.1128  12.9683  11.1892   N.2       1 RES1   0.0000
    23 N23     30.9178  14.0707  12.9811   N.pl3     1 RES1   0.0000
    24 C24     31.0715  15.1706  12.0204   C.3       1 RES1   0.0000
    25 C25     31.2701  16.4999  12.7351   C.3       1 RES1   0.0000
    26 C26     29.9534  15.1960  10.9821   C.3       1 RES1   0.0000
@<TRIPOS>BOND
     1     1     2    1
     2     2     3    2
     3     3     4    1
     4     4     5    2
     5     5     6    1
     6     6     7    2
     7     7     8    1
     8     8     9    2
     9     9    10    1
    10    10    11    1
    11    11    12    1
    12    12    13    2
    13    13    14    1
    14    14    15    2
    15    15    16    1
    16    16    17    1
    17    16    18    2
    18    16    19    2
    19    15    20    1
    20    20    21    2
    21    10    22    2
    22     5    23    1
    23    23    24    1
    24    24    25    1
    25    24    26    1
    26    23     2    1
    27    22     6    1
    28    21    12    1
@<TRIPOS>SUBSTRUCTURE
     1 RES1        1 GROUP             0 ****  ****    0  
@<TRIPOS>MOLECULE
ligand_28
    26    28     1     0     0
SMALL
NO_CHARGES
****
Generated from the CSD

@<TRIPOS>ATOM
     1 C1      28.7101  14.8260  13.9959   C.3       1 RES1   0.0000
     2 C2      29.8643  13.8987  13.8809   C.2       1 RES1   0.0000
     3 N3      30.0362  12.8224  14.6365   N.2       1 RES1   0.0000
     4 C4      31.2166  12.2626  14.2199   C.2       1 RES1   0.0000
     5 C5      31.7850  12.9850  13.2080   C.2       1 RES1   0.0000
     6 C6      33.0450  12.7100  12.5110   C.2       1 RES1   0.0000
     7 C7      34.1641  12.2619  13.2037   C.2       1 RES1   0.0000
     8 C8      35.3191  12.0464  12.4779   C.2       1 RES1   0.0000
     9 N9      35.4053  12.2714  11.1645   N.2       1 RES1   0.0000
    10 C10     34.2803  12.7219  10.5528   C.2       1 RES1   0.0000
    11 N11     34.4228  12.9501   9.2096   N.2       1 RES1   0.0000
    12 C12     35.5354  12.8081   8.3450   C.2       1 RES1   0.0000
    13 C13     36.8595  13.0774   8.7192   C.2       1 RES1   0.0000
    14 C14     37.8937  12.9228   7.8148   C.2       1 RES1   0.0000
    15 C15     37.6134  12.5076   6.5228   C.2       1 RES1   0.0000
    16 S16     38.9202  12.3039   5.3492   S.o2      1 RES1   0.0000
    17 C17     38.9133  13.7869   4.4159   C.3       1 RES1   0.0000
    18 O18     40.1443  12.2383   6.0851   O.2       1 RES1   0.0000
    19 O19     38.5964  11.2200   4.4684   O.2       1 RES1   0.0000
    20 C20     36.3092  12.2602   6.1254   C.2       1 RES1   0.0000
    21 C21     35.2780  12.4028   7.0298   C.2       1 RES1   0.0000
    22 N22     33.1128  12.9683  11.1892   N.2       1 RES1   0.0000
    23 N23     30.9027  14.0539  12.9604   N.pl3     1 RES1   0.0000
    24 C24     31.0374  15.1329  11.9736   C.3       1 RES1   0.0000
    25 C25     30.8480  14.6082  10.5572   C.3       1 RES1   0.0000
    26 C26     32.3218  15.9354  12.1614   C.3       1 RES1   0.0000
@<TRIPOS>BOND
     1     1     2    1
     2     2     3    2
     3     3     4    1
     4     4     5    2
     5     5     6    1
     6     6     7    2
     7     7     8    1
     8     8     9    2
     9     9    10    1
    10    10    11    1
    11    11    12    1
    12    12    13    2
    13    13    14    1
    14    14    15    2
    15    15    16    1
    16    16    17    1
    17    16    18    2
    18    16    19    2
    19    15    20    1
    20    20    21    2
    21    10    22    2
    22     5    23    1
    23    23    24    1
    24    24    25    1
    25    24    26    1
    26    23     2    1
    27    22     6    1
    28    21    12    1
@<TRIPOS>SUBSTRUCTURE
     1 RES1        1 GROUP             0 ****  ****    0  
@<TRIPOS>MOLECULE
ligand_29
    26    28     1     0     0
SMALL
NO_CHARGES
****
Generated from the CSD

@<TRIPOS>ATOM
     1 C1      28.6751  14.7867  13.9482   C.3       1 RES1   0.0000
     2 C2      29.8495  13.8819  13.8607   C.2       1 RES1   0.0000
     3 N3      30.0528  12.8423  14.6587   N.2       1 RES1   0.0000
     4 C4      31.2422  12.2926  14.2544   C.2       1 RES1   0.0000
     5 C5      31.7850  12.9850  13.2080   C.2       1 RES1   0.0000
     6 C6      33.0450  12.7100  12.5110   C.2       1 RES1   0.0000
     7 C7      33.4902  11.4063  12.3230   C.2       1 RES1   0.0000
     8 C8      34.6977  11.2321  11.6759   C.2       1 RES1   0.0000
     9 N9      35.4502  12.2513  11.2537   N.2       1 RES1   0.0000
    10 C10     34.9636  13.4978  11.4820   C.2       1 RES1   0.0000
    11 N11     35.7772  14.5087  11.0429   N.2       1 RES1   0.0000
    12 C12     35.6393  15.9171  11.0977   C.2       1 RES1   0.0000
    13 C13     36.0739  16.7880  10.0885   C.2       1 RES1   0.0000
    14 C14     35.9115  18.1549  10.2179   C.2       1 RES1   0.0000
    15 C15     35.3224  18.6662  11.3632   C.2       1 RES1   0.0000
    16 S16     35.1053  20.4110  11.5504   S.o2      1 RES1   0.0000
    17 C17     33.6410  20.7740  10.6591   C.3       1 RES1   0.0000
    18 O18     34.8645  20.6618  12.9373   O.2       1 RES1   0.0000
    19 O19     36.1956  21.0913  10.9149   O.2       1 RES1   0.0000
    20 C20     34.9086  17.8247  12.3833   C.2       1 RES1   0.0000
    21 C21     35.0594  16.4604  12.2504   C.2       1 RES1   0.0000
    22 N22     33.7977  13.7569  12.1161   N.2       1 RES1   0.0000
    23 N23     30.8761  14.0223  12.9248   N.pl3     1 RES1   0.0000
    24 C24     30.9772  15.0620  11.8928   C.3       1 RES1   0.0000
    25 C25     31.1862  16.4352  12.5159   C.3       1 RES1   0.0000
    26 C26     29.8189  15.0110  10.9006   C.3       1 RES1   0.0000
@<TRIPOS>BOND
     1     1     2    1
     2     2     3    2
     3     3     4    1
     4     4     5    2
     5     5     6    1
     6     6     7    2
     7     7     8    1
     8     8     9    2
     9     9    10    1
    10    10    11    1
    11    11    12    1
    12    12    13    2
    13    13    14    1
    14    14    15    2
    15    15    16    1
    16    16    17    1
    17    16    18    2
    18    16    19    2
    19    15    20    1
    20    20    21    2
    21    10    22    2
    22     5    23    1
    23    23    24    1
    24    24    25    1
    25    24    26    1
    26    23     2    1
    27    22     6    1
    28    21    12    1
@<TRIPOS>SUBSTRUCTURE
     1 RES1        1 GROUP             0 ****  ****    0  
@<TRIPOS>MOLECULE
ligand_30
    26    28     1     0     0
SMALL
NO_CHARGES
****
Generated from the CSD

@<TRIPOS>ATOM
     1 C1      28.7281  14.8450  14.0209   C.3       1 RES1   0.0000
     2 C2      29.8719  13.9068  13.8914   C.2       1 RES1   0.0000
     3 N3      30.0277  12.8128  14.6249   N.2       1 RES1   0.0000
     4 C4      31.2034  12.2481  14.2018   C.2       1 RES1   0.0000
     5 C5      31.7850  12.9850  13.2080   C.2       1 RES1   0.0000
     6 C6      33.0450  12.7100  12.5110   C.2       1 RES1   0.0000
     7 C7      34.1641  12.2619  13.2037   C.2       1 RES1   0.0000
     8 C8      35.3191  12.0464  12.4779   C.2       1 RES1   0.0000
     9 N9      35.4053  12.2714  11.1645   N.2       1 RES1   0.0000
    10 C10     34.2803  12.7219  10.5528   C.2       1 RES1   0.0000
    11 N11     34.4228  12.9501   9.2096   N.2       1 RES1   0.0000
    12 C12     33.5026  13.3932   8.2287   C.2       1 RES1   0.0000
    13 C13     32.1442  13.0463   8.2132   C.2       1 RES1   0.0000
    14 C14     31.3081  13.5127   7.2158   C.2       1 RES1   0.0000
    15 C15     31.8241  14.3224   6.2166   C.2       1 RES1   0.0000
    16 S16     30.7735  14.9297   4.9307   S.o2      1 RES1   0.0000
    17 C17     31.0380  13.8355   3.5879   C.3       1 RES1   0.0000
    18 O18     29.4241  14.7780   5.3786   O.2       1 RES1   0.0000
    19 O19     31.2177  16.2349   4.5377   O.2       1 RES1   0.0000
    20 C20     33.1687  14.6567   6.1994   C.2       1 RES1   0.0000
    21 C21     34.0013  14.2018   7.2001   C.2       1 RES1   0.0000
    22 N22     33.1128  12.9683  11.1892   N.2       1 RES1   0.0000
    23 N23     30.9164  14.0692  12.9792   N.pl3     1 RES1   0.0000
    24 C24     31.0683  15.1671  12.0160   C.3       1 RES1   0.0000
    25 C25     30.8719  14.6762  10.5885   C.3       1 RES1   0.0000
    26 C26     32.3648  15.9455  12.2216   C.3       1 RES1   0.0000
@<TRIPOS>BOND
     1     1     2    1
     2     2     3    2
     3     3     4    1
     4     4     5    2
     5     5     6    1
     6     6     7    2
     7     7     8    1
     8     8     9    2
     9     9    10    1
    10    10    11    1
    11    11    12    1
    12    12    13    2
    13    13    14    1
    14    14    15    2
    15    15    16    1
    16    16    17    1
    17    16    18    2
    18    16    19    2
    19    15    20    1
    20    20    21    2
    21    10    22    2
    22     5    23    1
    23    23    24    1
    24    24    25    1
    25    24    26    1
    26    23     2    1
    27    22     6    1
    28    21    12    1
@<TRIPOS>SUBSTRUCTURE
     1 RES1        1 GROUP             0 ****  ****    0  
@<TRIPOS>MOLECULE
ligand_31
    26    28     1     0     0
SMALL
NO_CHARGES
****
Generated from the CSD

@<TRIPOS>ATOM
     1 C1      28.7308  14.8478  14.0247   C.3       1 RES1   0.0000
     2 C2      29.8730  13.9080  13.8931   C.2       1 RES1   0.0000
     3 N3      30.0264  12.8114  14.6231   N.2       1 RES1   0.0000
     4 C4      31.2014  12.2459  14.1991   C.2       1 RES1   0.0000
     5 C5      31.7850  12.9850  13.2080   C.2       1 RES1   0.0000
     6 C6      33.0450  12.7100  12.5110   C.2       1 RES1   0.0000
     7 C7      34.1641  12.2619  13.2037   C.2       1 RES1   0.0000
     8 C8      35.3191  12.0464  12.4779   C.2       1 RES1   0.0000
     9 N9      35.4053  12.2714  11.1645   N.2       1 RES1   0.0000
    10 C10     34.2803  12.7219  10.5528   C.2       1 RES1   0.0000
    11 N11     34.4228  12.9501   9.2096   N.2       1 RES1   0.0000
    12 C12     33.5080  13.4126   8.2325   C.2       1 RES1   0.0000
    13 C13     32.1402  13.1046   8.2299   C.2       1 RES1   0.0000
    14 C14     31.3100  13.5878   7.2355   C.2       1 RES1   0.0000
    15 C15     31.8412  14.3756   6.2267   C.2       1 RES1   0.0000
    16 S16     30.7984  15.0038   4.9444   S.o2      1 RES1   0.0000
    17 C17     30.0525  16.4296   5.6380   C.3       1 RES1   0.0000
    18 O18     31.6480  15.4149   3.8704   O.2       1 RES1   0.0000
    19 O19     29.7655  14.0487   4.6682   O.2       1 RES1   0.0000
    20 C20     33.1946  14.6711   6.1969   C.2       1 RES1   0.0000
    21 C21     34.0217  14.1994   7.1945   C.2       1 RES1   0.0000
    22 N22     33.1128  12.9683  11.1892   N.2       1 RES1   0.0000
    23 N23     30.9185  14.0714  12.9820   N.pl3     1 RES1   0.0000
    24 C24     31.0730  15.1722  12.0225   C.3       1 RES1   0.0000
    25 C25     31.2683  16.5013  12.7387   C.3       1 RES1   0.0000
    26 C26     29.9573  15.1970  10.9816   C.3       1 RES1   0.0000
@<TRIPOS>BOND
     1     1     2    1
     2     2     3    2
     3     3     4    1
     4     4     5    2
     5     5     6    1
     6     6     7    2
     7     7     8    1
     8     8     9    2
     9     9    10    1
    10    10    11    1
    11    11    12    1
    12    12    13    2
    13    13    14    1
    14    14    15    2
    15    15    16    1
    16    16    17    1
    17    16    18    2
    18    16    19    2
    19    15    20    1
    20    20    21    2
    21    10    22    2
    22     5    23    1
    23    23    24    1
    24    24    25    1
    25    24    26    1
    26    23     2    1
    27    22     6    1
    28    21    12    1
@<TRIPOS>SUBSTRUCTURE
     1 RES1        1 GROUP             0 ****  ****    0  
@<TRIPOS>MOLECULE
ligand_32
    26    28     1     0     0
SMALL
NO_CHARGES
****
Generated from the CSD

@<TRIPOS>ATOM
     1 C1      28.7101  14.8260  13.9959   C.3       1 RES1   0.0000
     2 C2      29.8643  13.8987  13.8809   C.2       1 RES1   0.0000
     3 N3      30.0362  12.8224  14.6365   N.2       1 RES1   0.0000
     4 C4      31.2166  12.2626  14.2199   C.2       1 RES1   0.0000
     5 C5      31.7850  12.9850  13.2080   C.2       1 RES1   0.0000
     6 C6      33.0450  12.7100  12.5110   C.2       1 RES1   0.0000
     7 C7      34.1641  12.2619  13.2037   C.2       1 RES1   0.0000
     8 C8      35.3191  12.0464  12.4779   C.2       1 RES1   0.0000
     9 N9      35.4053  12.2714  11.1645   N.2       1 RES1   0.0000
    10 C10     34.2803  12.7219  10.5528   C.2       1 RES1   0.0000
    11 N11     34.4228  12.9501   9.2096   N.2       1 RES1   0.0000
    12 C12     35.5354  12.8081   8.3450   C.2       1 RES1   0.0000
    13 C13     36.8595  13.0774   8.7192   C.2       1 RES1   0.0000
    14 C14     37.8937  12.9228   7.8148   C.2       1 RES1   0.0000
    15 C15     37.6134  12.5076   6.5228   C.2       1 RES1   0.0000
    16 S16     38.9202  12.3039   5.3492   S.o2      1 RES1   0.0000
    17 C17     39.5826  10.7188   5.6937   C.3       1 RES1   0.0000
    18 O18     38.3225  12.2718   4.0506   O.2       1 RES1   0.0000
    19 O19     39.9389  13.2795   5.6059   O.2       1 RES1   0.0000
    20 C20     36.3092  12.2602   6.1254   C.2       1 RES1   0.0000
    21 C21     35.2780  12.4028   7.0298   C.2       1 RES1   0.0000
    22 N22     33.1128  12.9683  11.1892   N.2       1 RES1   0.0000
    23 N23     30.9027  14.0539  12.9604   N.pl3     1 RES1   0.0000
    24 C24     31.0374  15.1329  11.9736   C.3       1 RES1   0.0000
    25 C25     30.8480  14.6082  10.5572   C.3       1 RES1   0.0000
    26 C26     32.3218  15.9354  12.1614   C.3       1 RES1   0.0000
@<TRIPOS>BOND
     1     1     2    1
     2     2     3    2
     3     3     4    1
     4     4     5    2
     5     5     6    1
     6     6     7    2
     7     7     8    1
     8     8     9    2
     9     9    10    1
    10    10    11    1
    11    11    12    1
    12    12    13    2
    13    13    14    1
    14    14    15    2
    15    15    16    1
    16    16    17    1
    17    16    18    2
    18    16    19    2
    19    15    20    1
    20    20    21    2
    21    10    22    2
    22     5    23    1
    23    23    24    1
    24    24    25    1
    25    24    26    1
    26    23     2    1
    27    22     6    1
    28    21    12    1
@<TRIPOS>SUBSTRUCTURE
     1 RES1        1 GROUP             0 ****  ****    0  
@<TRIPOS>MOLECULE
ligand_33
    26    28     1     0     0
SMALL
NO_CHARGES
****
Generated from the CSD

@<TRIPOS>ATOM
     1 C1      28.7281  14.8450  14.0209   C.3       1 RES1   0.0000
     2 C2      29.8719  13.9068  13.8914   C.2       1 RES1   0.0000
     3 N3      30.0277  12.8128  14.6249   N.2       1 RES1   0.0000
     4 C4      31.2034  12.2481  14.2018   C.2       1 RES1   0.0000
     5 C5      31.7850  12.9850  13.2080   C.2       1 RES1   0.0000
     6 C6      33.0450  12.7100  12.5110   C.2       1 RES1   0.0000
     7 C7      34.1641  12.2619  13.2037   C.2       1 RES1   0.0000
     8 C8      35.3191  12.0464  12.4779   C.2       1 RES1   0.0000
     9 N9      35.4053  12.2714  11.1645   N.2       1 RES1   0.0000
    10 C10     34.2803  12.7219  10.5528   C.2       1 RES1   0.0000
    11 N11     34.4228  12.9501   9.2096   N.2       1 RES1   0.0000
    12 C12     33.5026  13.3932   8.2287   C.2       1 RES1   0.0000
    13 C13     32.1442  13.0463   8.2132   C.2       1 RES1   0.0000
    14 C14     31.3081  13.5127   7.2158   C.2       1 RES1   0.0000
    15 C15     31.8241  14.3224   6.2166   C.2       1 RES1   0.0000
    16 S16     30.7735  14.9297   4.9307   S.o2      1 RES1   0.0000
    17 C17     29.9818  16.3286   5.6282   C.3       1 RES1   0.0000
    18 O18     31.6191  15.3726   3.8661   O.2       1 RES1   0.0000
    19 O19     29.7705  13.9474   4.6398   O.2       1 RES1   0.0000
    20 C20     33.1687  14.6567   6.1994   C.2       1 RES1   0.0000
    21 C21     34.0013  14.2018   7.2001   C.2       1 RES1   0.0000
    22 N22     33.1128  12.9683  11.1892   N.2       1 RES1   0.0000
    23 N23     30.9164  14.0692  12.9792   N.pl3     1 RES1   0.0000
    24 C24     31.0683  15.1671  12.0160   C.3       1 RES1   0.0000
    25 C25     30.8719  14.6762  10.5885   C.3       1 RES1   0.0000
    26 C26     32.3648  15.9455  12.2216   C.3       1 RES1   0.0000
@<TRIPOS>BOND
     1     1     2    1
     2     2     3    2
     3     3     4    1
     4     4     5    2
     5     5     6    1
     6     6     7    2
     7     7     8    1
     8     8     9    2
     9     9    10    1
    10    10    11    1
    11    11    12    1
    12    12    13    2
    13    13    14    1
    14    14    15    2
    15    15    16    1
    16    16    17    1
    17    16    18    2
    18    16    19    2
    19    15    20    1
    20    20    21    2
    21    10    22    2
    22     5    23    1
    23    23    24    1
    24    24    25    1
    25    24    26    1
    26    23     2    1
    27    22     6    1
    28    21    12    1
@<TRIPOS>SUBSTRUCTURE
     1 RES1        1 GROUP             0 ****  ****    0  
@<TRIPOS>MOLECULE
ligand_34
    26    28     1     0     0
SMALL
NO_CHARGES
****
Generated from the CSD

@<TRIPOS>ATOM
     1 C1      28.7556  14.8724  14.0599   C.3       1 RES1   0.0000
     2 C2      29.8836  13.9185  13.9079   C.2       1 RES1   0.0000
     3 N3      30.0146  12.7989  14.6067   N.2       1 RES1   0.0000
     4 C4      31.1832  12.2270  14.1736   C.2       1 RES1   0.0000
     5 C5      31.7850  12.9850  13.2080   C.2       1 RES1   0.0000
     6 C6      33.0450  12.7100  12.5110   C.2       1 RES1   0.0000
     7 C7      33.1764  12.9478  11.1475   C.2       1 RES1   0.0000
     8 C8      34.3887  12.6424  10.5610   C.2       1 RES1   0.0000
     9 N9      35.4117  12.1146  11.2379   N.2       1 RES1   0.0000
    10 C10     35.2113  11.8945  12.5623   C.2       1 RES1   0.0000
    11 N11     36.2841  11.3404  13.2094   N.2       1 RES1   0.0000
    12 C12     37.5789  10.9918  12.7540   C.2       1 RES1   0.0000
    13 C13     38.2724   9.8442  13.1637   C.2       1 RES1   0.0000
    14 C14     39.5394   9.5751  12.6802   C.2       1 RES1   0.0000
    15 C15     40.1310  10.4569  11.7898   C.2       1 RES1   0.0000
    16 S16     41.7508  10.1332  11.1590   S.o2      1 RES1   0.0000
    17 C17     42.8173  11.0990  12.1591   C.3       1 RES1   0.0000
    18 O18     42.0317   8.7523  11.4007   O.2       1 RES1   0.0000
    19 O19     41.8373  10.6202   9.8134   O.2       1 RES1   0.0000
    20 C20     39.4730  11.6094  11.3913   C.2       1 RES1   0.0000
    21 C21     38.2046  11.8731  11.8639   C.2       1 RES1   0.0000
    22 N22     34.0543  12.1550  13.2121   N.2       1 RES1   0.0000
    23 N23     30.9374  14.0914  13.0084   N.pl3     1 RES1   0.0000
    24 C24     31.1159  15.2169  12.0823   C.3       1 RES1   0.0000
    25 C25     31.3095  16.5241  12.8380   C.3       1 RES1   0.0000
    26 C26     30.0174  15.2792  11.0248   C.3       1 RES1   0.0000
@<TRIPOS>BOND
     1     1     2    1
     2     2     3    2
     3     3     4    1
     4     4     5    2
     5     5     6    1
     6     6     7    2
     7     7     8    1
     8     8     9    2
     9     9    10    1
    10    10    11    1
    11    11    12    1
    12    12    13    2
    13    13    14    1
    14    14    15    2
    15    15    16    1
    16    16    17    1
    17    16    18    2
    18    16    19    2
    19    15    20    1
    20    20    21    2
    21    10    22    2
    22     5    23    1
    23    23    24    1
    24    24    25    1
    25    24    26    1
    26    23     2    1
    27    22     6    1
    28    21    12    1
@<TRIPOS>SUBSTRUCTURE
     1 RES1        1 GROUP             0 ****  ****    0  
@<TRIPOS>MOLECULE
ligand_35
    26    28     1     0     0
SMALL
NO_CHARGES
****
Generated from the CSD

@<TRIPOS>ATOM
     1 C1      28.6166  14.7131  13.8714   C.3       1 RES1   0.0000
     2 C2      29.8247  13.8505  13.8283   C.2       1 RES1   0.0000
     3 N3      30.0805  12.8791  14.6942   N.2       1 RES1   0.0000
     4 C4      31.2850  12.3485  14.3098   C.2       1 RES1   0.0000
     5 C5      31.7850  12.9850  13.2080   C.2       1 RES1   0.0000
     6 C6      33.0450  12.7100  12.5110   C.2       1 RES1   0.0000
     7 C7      33.8008  13.7406  11.9635   C.2       1 RES1   0.0000
     8 C8      34.9645  13.3969  11.3042   C.2       1 RES1   0.0000
     9 N9      35.3700  12.1333  11.1553   N.2       1 RES1   0.0000
    10 C10     34.5781  11.1756  11.7013   C.2       1 RES1   0.0000
    11 N11     35.0292   9.8962  11.5107   N.2       1 RES1   0.0000
    12 C12     36.1929   9.3943  10.8787   C.2       1 RES1   0.0000
    13 C13     36.2196   8.2361  10.0889   C.2       1 RES1   0.0000
    14 C14     37.3984   7.8036   9.5104   C.2       1 RES1   0.0000
    15 C15     38.5658   8.5188   9.7246   C.2       1 RES1   0.0000
    16 S16     40.0850   7.9837   8.9953   S.o2      1 RES1   0.0000
    17 C17     40.9008   7.0986  10.2687   C.3       1 RES1   0.0000
    18 O18     39.7533   7.0676   7.9488   O.2       1 RES1   0.0000
    19 O19     40.8798   9.1314   8.6688   O.2       1 RES1   0.0000
    20 C20     38.5661   9.6520  10.5221   C.2       1 RES1   0.0000
    21 C21     37.3888  10.0910  11.0902   C.2       1 RES1   0.0000
    22 N22     33.4198  11.4243  12.3533   N.2       1 RES1   0.0000
    23 N23     30.8316  13.9634  12.8675   N.pl3     1 RES1   0.0000
    24 C24     30.8767  14.9300  11.7631   C.3       1 RES1   0.0000
    25 C25     31.0868  16.3460  12.2811   C.3       1 RES1   0.0000
    26 C26     29.6825  14.7943  10.8226   C.3       1 RES1   0.0000
@<TRIPOS>BOND
     1     1     2    1
     2     2     3    2
     3     3     4    1
     4     4     5    2
     5     5     6    1
     6     6     7    2
     7     7     8    1
     8     8     9    2
     9     9    10    1
    10    10    11    1
    11    11    12    1
    12    12    13    2
    13    13    14    1
    14    14    15    2
    15    15    16    1
    16    16    17    1
    17    16    18    2
    18    16    19    2
    19    15    20    1
    20    20    21    2
    21    10    22    2
    22     5    23    1
    23    23    24    1
    24    24    25    1
    25    24    26    1
    26    23     2    1
    27    22     6    1
    28    21    12    1
@<TRIPOS>SUBSTRUCTURE
     1 RES1        1 GROUP             0 ****  ****    0  
@<TRIPOS>MOLECULE
ligand_36
    26    28     1     0     0
SMALL
NO_CHARGES
****
Generated from the CSD

@<TRIPOS>ATOM
     1 C1      28.7559  14.8727  14.0603   C.3       1 RES1   0.0000
     2 C2      29.8837  13.9186  13.9081   C.2       1 RES1   0.0000
     3 N3      30.0144  12.7988  14.6065   N.2       1 RES1   0.0000
     4 C4      31.1830  12.2268  14.1733   C.2       1 RES1   0.0000
     5 C5      31.7850  12.9850  13.2080   C.2       1 RES1   0.0000
     6 C6      33.0450  12.7100  12.5110   C.2       1 RES1   0.0000
     7 C7      33.1764  12.9478  11.1475   C.2       1 RES1   0.0000
     8 C8      34.3887  12.6424  10.5610   C.2       1 RES1   0.0000
     9 N9      35.4117  12.1146  11.2379   N.2       1 RES1   0.0000
    10 C10     35.2113  11.8945  12.5623   C.2       1 RES1   0.0000
    11 N11     36.2841  11.3404  13.2094   N.2       1 RES1   0.0000
    12 C12     36.4719  10.9573  14.5597   C.2       1 RES1   0.0000
    13 C13     37.6853  11.0857  15.2505   C.2       1 RES1   0.0000
    14 C14     37.7935  10.6810  16.5680   C.2       1 RES1   0.0000
    15 C15     36.6919  10.1332  17.2057   C.2       1 RES1   0.0000
    16 S16     36.8075   9.6080  18.8902   S.o2      1 RES1   0.0000
    17 C17     36.5964  11.0735  19.8272   C.3       1 RES1   0.0000
    18 O18     35.6953   8.7456  19.1426   O.2       1 RES1   0.0000
    19 O19     38.1277   9.1062  19.1366   O.2       1 RES1   0.0000
    20 C20     35.4905   9.9744  16.5337   C.2       1 RES1   0.0000
    21 C21     35.3780  10.3884  15.2231   C.2       1 RES1   0.0000
    22 N22     34.0543  12.1550  13.2121   N.2       1 RES1   0.0000
    23 N23     30.9377  14.0916  13.0088   N.pl3     1 RES1   0.0000
    24 C24     31.1164  15.2174  12.0830   C.3       1 RES1   0.0000
    25 C25     31.3105  16.5243  12.8392   C.3       1 RES1   0.0000
    26 C26     30.0178  15.2806  11.0257   C.3       1 RES1   0.0000
@<TRIPOS>BOND
     1     1     2    1
     2     2     3    2
     3     3     4    1
     4     4     5    2
     5     5     6    1
     6     6     7    2
     7     7     8    1
     8     8     9    2
     9     9    10    1
    10    10    11    1
    11    11    12    1
    12    12    13    2
    13    13    14    1
    14    14    15    2
    15    15    16    1
    16    16    17    1
    17    16    18    2
    18    16    19    2
    19    15    20    1
    20    20    21    2
    21    10    22    2
    22     5    23    1
    23    23    24    1
    24    24    25    1
    25    24    26    1
    26    23     2    1
    27    22     6    1
    28    21    12    1
@<TRIPOS>SUBSTRUCTURE
     1 RES1        1 GROUP             0 ****  ****    0  
@<TRIPOS>MOLECULE
ligand_37
    26    28     1     0     0
SMALL
NO_CHARGES
****
Generated from the CSD

@<TRIPOS>ATOM
     1 C1      28.6170  14.7136  13.8719   C.3       1 RES1   0.0000
     2 C2      29.8248  13.8508  13.8285   C.2       1 RES1   0.0000
     3 N3      30.0803  12.8788  14.6940   N.2       1 RES1   0.0000
     4 C4      31.2848  12.3481  14.3094   C.2       1 RES1   0.0000
     5 C5      31.7850  12.9850  13.2080   C.2       1 RES1   0.0000
     6 C6      33.0450  12.7100  12.5110   C.2       1 RES1   0.0000
     7 C7      33.8008  13.7406  11.9635   C.2       1 RES1   0.0000
     8 C8      34.9645  13.3969  11.3042   C.2       1 RES1   0.0000
     9 N9      35.3700  12.1333  11.1553   N.2       1 RES1   0.0000
    10 C10     34.5781  11.1756  11.7013   C.2       1 RES1   0.0000
    11 N11     35.0292   9.8962  11.5107   N.2       1 RES1   0.0000
    12 C12     34.4994   8.6440  11.9065   C.2       1 RES1   0.0000
    13 C13     35.2823   7.5499  12.3014   C.2       1 RES1   0.0000
    14 C14     34.6914   6.3547  12.6670   C.2       1 RES1   0.0000
    15 C15     33.3111   6.2374  12.6312   C.2       1 RES1   0.0000
    16 S16     32.5339   4.7180  13.0938   S.o2      1 RES1   0.0000
    17 C17     32.4638   4.7705  14.8438   C.3       1 RES1   0.0000
    18 O18     31.1975   4.7538  12.5865   O.2       1 RES1   0.0000
    19 O19     33.3776   3.6233  12.7129   O.2       1 RES1   0.0000
    20 C20     32.5203   7.2984  12.2202   C.2       1 RES1   0.0000
    21 C21     33.1078   8.4947  11.8664   C.2       1 RES1   0.0000
    22 N22     33.4198  11.4243  12.3533   N.2       1 RES1   0.0000
    23 N23     30.8319  13.9638  12.8679   N.pl3     1 RES1   0.0000
    24 C24     30.8773  14.9310  11.7639   C.3       1 RES1   0.0000
    25 C25     31.0882  16.3466  12.2826   C.3       1 RES1   0.0000
    26 C26     29.6830  14.7963  10.8235   C.3       1 RES1   0.0000
@<TRIPOS>BOND
     1     1     2    1
     2     2     3    2
     3     3     4    1
     4     4     5    2
     5     5     6    1
     6     6     7    2
     7     7     8    1
     8     8     9    2
     9     9    10    1
    10    10    11    1
    11    11    12    1
    12    12    13    2
    13    13    14    1
    14    14    15    2
    15    15    16    1
    16    16    17    1
    17    16    18    2
    18    16    19    2
    19    15    20    1
    20    20    21    2
    21    10    22    2
    22     5    23    1
    23    23    24    1
    24    24    25    1
    25    24    26    1
    26    23     2    1
    27    22     6    1
    28    21    12    1
@<TRIPOS>SUBSTRUCTURE
     1 RES1        1 GROUP             0 ****  ****    0  
@<TRIPOS>MOLECULE
ligand_38
    26    28     1     0     0
SMALL
NO_CHARGES
****
Generated from the CSD

@<TRIPOS>ATOM
     1 C1      28.7556  14.8724  14.0599   C.3       1 RES1   0.0000
     2 C2      29.8836  13.9185  13.9079   C.2       1 RES1   0.0000
     3 N3      30.0146  12.7989  14.6067   N.2       1 RES1   0.0000
     4 C4      31.1832  12.2270  14.1736   C.2       1 RES1   0.0000
     5 C5      31.7850  12.9850  13.2080   C.2       1 RES1   0.0000
     6 C6      33.0450  12.7100  12.5110   C.2       1 RES1   0.0000
     7 C7      33.1764  12.9478  11.1475   C.2       1 RES1   0.0000
     8 C8      34.3887  12.6424  10.5610   C.2       1 RES1   0.0000
     9 N9      35.4117  12.1146  11.2379   N.2       1 RES1   0.0000
    10 C10     35.2113  11.8945  12.5623   C.2       1 RES1   0.0000
    11 N11     36.2841  11.3404  13.2094   N.2       1 RES1   0.0000
    12 C12     37.5789  10.9918  12.7540   C.2       1 RES1   0.0000
    13 C13     38.2724   9.8442  13.1637   C.2       1 RES1   0.0000
    14 C14     39.5394   9.5751  12.6802   C.2       1 RES1   0.0000
    15 C15     40.1310  10.4569  11.7898   C.2       1 RES1   0.0000
    16 S16     41.7508  10.1332  11.1590   S.o2      1 RES1   0.0000
    17 C17     41.4970   9.0051   9.8425   C.3       1 RES1   0.0000
    18 O18     42.2466  11.3591  10.6150   O.2       1 RES1   0.0000
    19 O19     42.5257   9.4742  12.1693   O.2       1 RES1   0.0000
    20 C20     39.4730  11.6094  11.3913   C.2       1 RES1   0.0000
    21 C21     38.2046  11.8731  11.8639   C.2       1 RES1   0.0000
    22 N22     34.0543  12.1550  13.2121   N.2       1 RES1   0.0000
    23 N23     30.9374  14.0914  13.0084   N.pl3     1 RES1   0.0000
    24 C24     31.1159  15.2169  12.0823   C.3       1 RES1   0.0000
    25 C25     31.3095  16.5241  12.8380   C.3       1 RES1   0.0000
    26 C26     30.0174  15.2792  11.0248   C.3       1 RES1   0.0000
@<TRIPOS>BOND
     1     1     2    1
     2     2     3    2
     3     3     4    1
     4     4     5    2
     5     5     6    1
     6     6     7    2
     7     7     8    1
     8     8     9    2
     9     9    10    1
    10    10    11    1
    11    11    12    1
    12    12    13    2
    13    13    14    1
    14    14    15    2
    15    15    16    1
    16    16    17    1
    17    16    18    2
    18    16    19    2
    19    15    20    1
    20    20    21    2
    21    10    22    2
    22     5    23    1
    23    23    24    1
    24    24    25    1
    25    24    26    1
    26    23     2    1
    27    22     6    1
    28    21    12    1
@<TRIPOS>SUBSTRUCTURE
     1 RES1        1 GROUP             0 ****  ****    0  
@<TRIPOS>MOLECULE
ligand_39
    26    28     1     0     0
SMALL
NO_CHARGES
****
Generated from the CSD

@<TRIPOS>ATOM
     1 C1      28.6166  14.7131  13.8714   C.3       1 RES1   0.0000
     2 C2      29.8247  13.8505  13.8283   C.2       1 RES1   0.0000
     3 N3      30.0805  12.8791  14.6942   N.2       1 RES1   0.0000
     4 C4      31.2850  12.3485  14.3098   C.2       1 RES1   0.0000
     5 C5      31.7850  12.9850  13.2080   C.2       1 RES1   0.0000
     6 C6      33.0450  12.7100  12.5110   C.2       1 RES1   0.0000
     7 C7      33.8008  13.7406  11.9635   C.2       1 RES1   0.0000
     8 C8      34.9645  13.3969  11.3042   C.2       1 RES1   0.0000
     9 N9      35.3700  12.1333  11.1553   N.2       1 RES1   0.0000
    10 C10     34.5781  11.1756  11.7013   C.2       1 RES1   0.0000
    11 N11     35.0292   9.8962  11.5107   N.2       1 RES1   0.0000
    12 C12     36.1929   9.3943  10.8787   C.2       1 RES1   0.0000
    13 C13     36.2196   8.2361  10.0889   C.2       1 RES1   0.0000
    14 C14     37.3984   7.8036   9.5104   C.2       1 RES1   0.0000
    15 C15     38.5658   8.5188   9.7246   C.2       1 RES1   0.0000
    16 S16     40.0850   7.9837   8.9953   S.o2      1 RES1   0.0000
    17 C17     40.0315   8.6002   7.3560   C.3       1 RES1   0.0000
    18 O18     41.1452   8.6432   9.6921   O.2       1 RES1   0.0000
    19 O19     40.0982   6.5514   8.9339   O.2       1 RES1   0.0000
    20 C20     38.5661   9.6520  10.5221   C.2       1 RES1   0.0000
    21 C21     37.3888  10.0910  11.0902   C.2       1 RES1   0.0000
    22 N22     33.4198  11.4243  12.3533   N.2       1 RES1   0.0000
    23 N23     30.8316  13.9634  12.8675   N.pl3     1 RES1   0.0000
    24 C24     30.8767  14.9300  11.7631   C.3       1 RES1   0.0000
    25 C25     31.0868  16.3460  12.2811   C.3       1 RES1   0.0000
    26 C26     29.6825  14.7943  10.8226   C.3       1 RES1   0.0000
@<TRIPOS>BOND
     1     1     2    1
     2     2     3    2
     3     3     4    1
     4     4     5    2
     5     5     6    1
     6     6     7    2
     7     7     8    1
     8     8     9    2
     9     9    10    1
    10    10    11    1
    11    11    12    1
    12    12    13    2
    13    13    14    1
    14    14    15    2
    15    15    16    1
    16    16    17    1
    17    16    18    2
    18    16    19    2
    19    15    20    1
    20    20    21    2
    21    10    22    2
    22     5    23    1
    23    23    24    1
    24    24    25    1
    25    24    26    1
    26    23     2    1
    27    22     6    1
    28    21    12    1
@<TRIPOS>SUBSTRUCTURE
     1 RES1        1 GROUP             0 ****  ****    0  
@<TRIPOS>MOLECULE
ligand_40
    26    28     1     0     0
SMALL
NO_CHARGES
****
Generated from the CSD

@<TRIPOS>ATOM
     1 C1      28.7563  14.8731  14.0609   C.3       1 RES1   0.0000
     2 C2      29.8839  13.9188  13.9083   C.2       1 RES1   0.0000
     3 N3      30.0143  12.7986  14.6063   N.2       1 RES1   0.0000
     4 C4      31.1827  12.2266  14.1729   C.2       1 RES1   0.0000
     5 C5      31.7850  12.9850  13.2080   C.2       1 RES1   0.0000
     6 C6      33.0450  12.7100  12.5110   C.2       1 RES1   0.0000
     7 C7      33.1764  12.9478  11.1475   C.2       1 RES1   0.0000
     8 C8      34.3887  12.6424  10.5610   C.2       1 RES1   0.0000
     9 N9      35.4117  12.1146  11.2379   N.2       1 RES1   0.0000
    10 C10     35.2113  11.8945  12.5623   C.2       1 RES1   0.0000
    11 N11     36.2841  11.3404  13.2094   N.2       1 RES1   0.0000
    12 C12     36.4748  10.9649  14.5615   C.2       1 RES1   0.0000
    13 C13     35.9303  11.6570  15.6525   C.2       1 RES1   0.0000
    14 C14     36.1682  11.2333  16.9468   C.2       1 RES1   0.0000
    15 C15     36.9626  10.1189  17.1644   C.2       1 RES1   0.0000
    16 S16     37.2809   9.5595  18.8113   S.o2      1 RES1   0.0000
    17 C17     35.8699   8.6126  19.2386   C.3       1 RES1   0.0000
    18 O18     38.4109   8.6855  18.7511   O.2       1 RES1   0.0000
    19 O19     37.3419  10.6916  19.6888   O.2       1 RES1   0.0000
    20 C20     37.5308   9.4354  16.1014   C.2       1 RES1   0.0000
    21 C21     37.2848   9.8501  14.8094   C.2       1 RES1   0.0000
    22 N22     34.0543  12.1550  13.2121   N.2       1 RES1   0.0000
    23 N23     30.9380  14.0919  13.0092   N.pl3     1 RES1   0.0000
    24 C24     31.1170  15.2180  12.0839   C.3       1 RES1   0.0000
    25 C25     31.3164  16.5238  12.8407   C.3       1 RES1   0.0000
    26 C26     30.0159  15.2848  11.0295   C.3       1 RES1   0.0000
@<TRIPOS>BOND
     1     1     2    1
     2     2     3    2
     3     3     4    1
     4     4     5    2
     5     5     6    1
     6     6     7    2
     7     7     8    1
     8     8     9    2
     9     9    10    1
    10    10    11    1
    11    11    12    1
    12    12    13    2
    13    13    14    1
    14    14    15    2
    15    15    16    1
    16    16    17    1
    17    16    18    2
    18    16    19    2
    19    15    20    1
    20    20    21    2
    21    10    22    2
    22     5    23    1
    23    23    24    1
    24    24    25    1
    25    24    26    1
    26    23     2    1
    27    22     6    1
    28    21    12    1
@<TRIPOS>SUBSTRUCTURE
     1 RES1        1 GROUP             0 ****  ****    0  
@<TRIPOS>MOLECULE
ligand_41
    26    28     1     0     0
SMALL
NO_CHARGES
****
Generated from the CSD

@<TRIPOS>ATOM
     1 C1      28.6165  14.7130  13.8713   C.3       1 RES1   0.0000
     2 C2      29.8246  13.8505  13.8282   C.2       1 RES1   0.0000
     3 N3      30.0805  12.8792  14.6942   N.2       1 RES1   0.0000
     4 C4      31.2851  12.3486  14.3098   C.2       1 RES1   0.0000
     5 C5      31.7850  12.9850  13.2080   C.2       1 RES1   0.0000
     6 C6      33.0450  12.7100  12.5110   C.2       1 RES1   0.0000
     7 C7      33.8008  13.7406  11.9635   C.2       1 RES1   0.0000
     8 C8      34.9645  13.3969  11.3042   C.2       1 RES1   0.0000
     9 N9      35.3700  12.1333  11.1553   N.2       1 RES1   0.0000
    10 C10     34.5781  11.1756  11.7013   C.2       1 RES1   0.0000
    11 N11     35.0292   9.8962  11.5107   N.2       1 RES1   0.0000
    12 C12     34.5037   8.6444  11.9137   C.2       1 RES1   0.0000
    13 C13     33.8264   8.4301  13.1225   C.2       1 RES1   0.0000
    14 C14     33.3484   7.1750  13.4505   C.2       1 RES1   0.0000
    15 C15     33.5522   6.1181  12.5777   C.2       1 RES1   0.0000
    16 S16     32.9502   4.5042  12.9770   S.o2      1 RES1   0.0000
    17 C17     31.2603   4.5342  12.5148   C.3       1 RES1   0.0000
    18 O18     33.6339   3.5756  12.1316   O.2       1 RES1   0.0000
    19 O19     33.0220   4.3134  14.3961   O.2       1 RES1   0.0000
    20 C20     34.2407   6.3031  11.3896   C.2       1 RES1   0.0000
    21 C21     34.7079   7.5569  11.0558   C.2       1 RES1   0.0000
    22 N22     33.4198  11.4243  12.3533   N.2       1 RES1   0.0000
    23 N23     30.8315  13.9633  12.8674   N.pl3     1 RES1   0.0000
    24 C24     30.8765  14.9299  11.7629   C.3       1 RES1   0.0000
    25 C25     31.0873  16.3458  12.2808   C.3       1 RES1   0.0000
    26 C26     29.6820  14.7945  10.8229   C.3       1 RES1   0.0000
@<TRIPOS>BOND
     1     1     2    1
     2     2     3    2
     3     3     4    1
     4     4     5    2
     5     5     6    1
     6     6     7    2
     7     7     8    1
     8     8     9    2
     9     9    10    1
    10    10    11    1
    11    11    12    1
    12    12    13    2
    13    13    14    1
    14    14    15    2
    15    15    16    1
    16    16    17    1
    17    16    18    2
    18    16    19    2
    19    15    20    1
    20    20    21    2
    21    10    22    2
    22     5    23    1
    23    23    24    1
    24    24    25    1
    25    24    26    1
    26    23     2    1
    27    22     6    1
    28    21    12    1
@<TRIPOS>SUBSTRUCTURE
     1 RES1        1 GROUP             0 ****  ****    0  
@<TRIPOS>MOLECULE
ligand_42
    26    28     1     0     0
SMALL
NO_CHARGES
****
Generated from the CSD

@<TRIPOS>ATOM
     1 C1      28.6944  14.8087  13.9743   C.3       1 RES1   0.0000
     2 C2      29.8576  13.8913  13.8717   C.2       1 RES1   0.0000
     3 N3      30.0437  12.8312  14.6466   N.2       1 RES1   0.0000
     4 C4      31.2281  12.2758  14.2356   C.2       1 RES1   0.0000
     5 C5      31.7850  12.9850  13.2080   C.2       1 RES1   0.0000
     6 C6      33.0450  12.7100  12.5110   C.2       1 RES1   0.0000
     7 C7      33.8664  11.6591  12.9033   C.2       1 RES1   0.0000
     8 C8      35.0468  11.4793  12.2095   C.2       1 RES1   0.0000
     9 N9      35.4320  12.2773  11.2105   N.2       1 RES1   0.0000
    10 C10     34.5903  13.2923  10.8883   C.2       1 RES1   0.0000
    11 N11     35.0355  14.0900   9.8673   N.2       1 RES1   0.0000
    12 C12     36.2164  14.0463   9.0870   C.2       1 RES1   0.0000
    13 C13     36.2303  13.9153   7.6911   C.2       1 RES1   0.0000
    14 C14     37.4260  13.8718   6.9983   C.2       1 RES1   0.0000
    15 C15     38.6212  13.9479   7.6955   C.2       1 RES1   0.0000
    16 S16     40.1622  13.8935   6.8302   S.o2      1 RES1   0.0000
    17 C17     40.6866  12.2269   6.9625   C.3       1 RES1   0.0000
    18 O18     39.8865  14.1731   5.4554   O.2       1 RES1   0.0000
    19 O19     41.1150  14.7175   7.5147   O.2       1 RES1   0.0000
    20 C20     38.6300  14.0527   9.0771   C.2       1 RES1   0.0000
    21 C21     37.4380  14.1078   9.7683   C.2       1 RES1   0.0000
    22 N22     33.4226  13.5449  11.5217   N.2       1 RES1   0.0000
    23 N23     30.8907  14.0400  12.9442   N.pl3     1 RES1   0.0000
    24 C24     31.0103  15.1017  11.9369   C.3       1 RES1   0.0000
    25 C25     31.2385  16.4567  12.5921   C.3       1 RES1   0.0000
    26 C26     29.8538  15.0913  10.9412   C.3       1 RES1   0.0000
@<TRIPOS>BOND
     1     1     2    1
     2     2     3    2
     3     3     4    1
     4     4     5    2
     5     5     6    1
     6     6     7    2
     7     7     8    1
     8     8     9    2
     9     9    10    1
    10    10    11    1
    11    11    12    1
    12    12    13    2
    13    13    14    1
    14    14    15    2
    15    15    16    1
    16    16    17    1
    17    16    18    2
    18    16    19    2
    19    15    20    1
    20    20    21    2
    21    10    22    2
    22     5    23    1
    23    23    24    1
    24    24    25    1
    25    24    26    1
    26    23     2    1
    27    22     6    1
    28    21    12    1
@<TRIPOS>SUBSTRUCTURE
     1 RES1        1 GROUP             0 ****  ****    0  
@<TRIPOS>MOLECULE
ligand_43
    26    28     1     0     0
SMALL
NO_CHARGES
****
Generated from the CSD

@<TRIPOS>ATOM
     1 C1      28.7058  14.8214  13.9900   C.3       1 RES1   0.0000
     2 C2      29.8625  13.8967  13.8784   C.2       1 RES1   0.0000
     3 N3      30.0383  12.8248  14.6393   N.2       1 RES1   0.0000
     4 C4      31.2198  12.2661  14.2242   C.2       1 RES1   0.0000
     5 C5      31.7850  12.9850  13.2080   C.2       1 RES1   0.0000
     6 C6      33.0450  12.7100  12.5110   C.2       1 RES1   0.0000
     7 C7      33.8664  11.6591  12.9033   C.2       1 RES1   0.0000
     8 C8      35.0468  11.4793  12.2095   C.2       1 RES1   0.0000
     9 N9      35.4320  12.2773  11.2105   N.2       1 RES1   0.0000
    10 C10     34.5903  13.2923  10.8883   C.2       1 RES1   0.0000
    11 N11     35.0355  14.0900   9.8673   N.2       1 RES1   0.0000
    12 C12     36.2164  14.0463   9.0870   C.2       1 RES1   0.0000
    13 C13     36.2303  13.9153   7.6911   C.2       1 RES1   0.0000
    14 C14     37.4260  13.8718   6.9983   C.2       1 RES1   0.0000
    15 C15     38.6212  13.9479   7.6955   C.2       1 RES1   0.0000
    16 S16     40.1622  13.8935   6.8302   S.o2      1 RES1   0.0000
    17 C17     40.6866  12.2269   6.9625   C.3       1 RES1   0.0000
    18 O18     39.8865  14.1731   5.4554   O.2       1 RES1   0.0000
    19 O19     41.1150  14.7175   7.5147   O.2       1 RES1   0.0000
    20 C20     38.6300  14.0527   9.0771   C.2       1 RES1   0.0000
    21 C21     37.4380  14.1078   9.7683   C.2       1 RES1   0.0000
    22 N22     33.4226  13.5449  11.5217   N.2       1 RES1   0.0000
    23 N23     30.8994  14.0501  12.9560   N.pl3     1 RES1   0.0000
    24 C24     31.0300  15.1245  11.9635   C.3       1 RES1   0.0000
    25 C25     30.9454  14.5756  10.5461   C.3       1 RES1   0.0000
    26 C26     32.2581  15.9964  12.2089   C.3       1 RES1   0.0000
@<TRIPOS>BOND
     1     1     2    1
     2     2     3    2
     3     3     4    1
     4     4     5    2
     5     5     6    1
     6     6     7    2
     7     7     8    1
     8     8     9    2
     9     9    10    1
    10    10    11    1
    11    11    12    1
    12    12    13    2
    13    13    14    1
    14    14    15    2
    15    15    16    1
    16    16    17    1
    17    16    18    2
    18    16    19    2
    19    15    20    1
    20    20    21    2
    21    10    22    2
    22     5    23    1
    23    23    24    1
    24    24    25    1
    25    24    26    1
    26    23     2    1
    27    22     6    1
    28    21    12    1
@<TRIPOS>SUBSTRUCTURE
     1 RES1        1 GROUP             0 ****  ****    0  
@<TRIPOS>MOLECULE
ligand_44
    26    28     1     0     0
SMALL
NO_CHARGES
****
Generated from the CSD

@<TRIPOS>ATOM
     1 C1      28.6690  14.7794  13.9400   C.3       1 RES1   0.0000
     2 C2      29.8469  13.8788  13.8573   C.2       1 RES1   0.0000
     3 N3      30.0557  12.8459  14.6625   N.2       1 RES1   0.0000
     4 C4      31.2467  12.2981  14.2603   C.2       1 RES1   0.0000
     5 C5      31.7850  12.9850  13.2080   C.2       1 RES1   0.0000
     6 C6      33.0450  12.7100  12.5110   C.2       1 RES1   0.0000
     7 C7      33.8664  11.6591  12.9033   C.2       1 RES1   0.0000
     8 C8      35.0468  11.4793  12.2095   C.2       1 RES1   0.0000
     9 N9      35.4320  12.2773  11.2105   N.2       1 RES1   0.0000
    10 C10     34.5903  13.2923  10.8883   C.2       1 RES1   0.0000
    11 N11     35.0355  14.0900   9.8673   N.2       1 RES1   0.0000
    12 C12     34.4505  15.2081   9.2247   C.2       1 RES1   0.0000
    13 C13     35.0101  16.4937   9.2226   C.2       1 RES1   0.0000
    14 C14     34.3743  17.5390   8.5787   C.2       1 RES1   0.0000
    15 C15     33.1661  17.3121   7.9391   C.2       1 RES1   0.0000
    16 S16     32.3349  18.6343   7.1100   S.o2      1 RES1   0.0000
    17 C17     31.1331  19.1913   8.2570   C.3       1 RES1   0.0000
    18 O18     33.2911  19.6790   6.9136   O.2       1 RES1   0.0000
    19 O19     31.6504  18.1134   5.9630   O.2       1 RES1   0.0000
    20 C20     32.5835  16.0549   7.9506   C.2       1 RES1   0.0000
    21 C21     33.2224  15.0088   8.5825   C.2       1 RES1   0.0000
    22 N22     33.4226  13.5449  11.5217   N.2       1 RES1   0.0000
    23 N23     30.8714  14.0164  12.9186   N.pl3     1 RES1   0.0000
    24 C24     30.9667  15.0490  11.8789   C.3       1 RES1   0.0000
    25 C25     30.7745  14.4510  10.4922   C.3       1 RES1   0.0000
    26 C26     32.2320  15.8919  12.0109   C.3       1 RES1   0.0000
@<TRIPOS>BOND
     1     1     2    1
     2     2     3    2
     3     3     4    1
     4     4     5    2
     5     5     6    1
     6     6     7    2
     7     7     8    1
     8     8     9    2
     9     9    10    1
    10    10    11    1
    11    11    12    1
    12    12    13    2
    13    13    14    1
    14    14    15    2
    15    15    16    1
    16    16    17    1
    17    16    18    2
    18    16    19    2
    19    15    20    1
    20    20    21    2
    21    10    22    2
    22     5    23    1
    23    23    24    1
    24    24    25    1
    25    24    26    1
    26    23     2    1
    27    22     6    1
    28    21    12    1
@<TRIPOS>SUBSTRUCTURE
     1 RES1        1 GROUP             0 ****  ****    0  
@<TRIPOS>MOLECULE
ligand_45
    26    28     1     0     0
SMALL
NO_CHARGES
****
Generated from the CSD

@<TRIPOS>ATOM
     1 C1      28.6944  14.8087  13.9743   C.3       1 RES1   0.0000
     2 C2      29.8576  13.8913  13.8717   C.2       1 RES1   0.0000
     3 N3      30.0437  12.8312  14.6466   N.2       1 RES1   0.0000
     4 C4      31.2281  12.2758  14.2356   C.2       1 RES1   0.0000
     5 C5      31.7850  12.9850  13.2080   C.2       1 RES1   0.0000
     6 C6      33.0450  12.7100  12.5110   C.2       1 RES1   0.0000
     7 C7      33.8664  11.6591  12.9033   C.2       1 RES1   0.0000
     8 C8      35.0468  11.4793  12.2095   C.2       1 RES1   0.0000
     9 N9      35.4320  12.2773  11.2105   N.2       1 RES1   0.0000
    10 C10     34.5903  13.2923  10.8883   C.2       1 RES1   0.0000
    11 N11     35.0355  14.0900   9.8673   N.2       1 RES1   0.0000
    12 C12     36.2164  14.0463   9.0870   C.2       1 RES1   0.0000
    13 C13     36.2303  13.9153   7.6911   C.2       1 RES1   0.0000
    14 C14     37.4260  13.8718   6.9983   C.2       1 RES1   0.0000
    15 C15     38.6212  13.9479   7.6955   C.2       1 RES1   0.0000
    16 S16     40.1622  13.8935   6.8302   S.o2      1 RES1   0.0000
    17 C17     40.4110  15.5329   6.2638   C.3       1 RES1   0.0000
    18 O18     41.1768  13.5879   7.7902   O.2       1 RES1   0.0000
    19 O19     40.0289  13.0406   5.6856   O.2       1 RES1   0.0000
    20 C20     38.6300  14.0527   9.0771   C.2       1 RES1   0.0000
    21 C21     37.4380  14.1078   9.7683   C.2       1 RES1   0.0000
    22 N22     33.4226  13.5449  11.5217   N.2       1 RES1   0.0000
    23 N23     30.8907  14.0400  12.9442   N.pl3     1 RES1   0.0000
    24 C24     31.0103  15.1017  11.9369   C.3       1 RES1   0.0000
    25 C25     31.2385  16.4567  12.5921   C.3       1 RES1   0.0000
    26 C26     29.8538  15.0913  10.9412   C.3       1 RES1   0.0000
@<TRIPOS>BOND
     1     1     2    1
     2     2     3    2
     3     3     4    1
     4     4     5    2
     5     5     6    1
     6     6     7    2
     7     7     8    1
     8     8     9    2
     9     9    10    1
    10    10    11    1
    11    11    12    1
    12    12    13    2
    13    13    14    1
    14    14    15    2
    15    15    16    1
    16    16    17    1
    17    16    18    2
    18    16    19    2
    19    15    20    1
    20    20    21    2
    21    10    22    2
    22     5    23    1
    23    23    24    1
    24    24    25    1
    25    24    26    1
    26    23     2    1
    27    22     6    1
    28    21    12    1
@<TRIPOS>SUBSTRUCTURE
     1 RES1        1 GROUP             0 ****  ****    0  
@<TRIPOS>MOLECULE
ligand_46
    26    28     1     0     0
SMALL
NO_CHARGES
****
Generated from the CSD

@<TRIPOS>ATOM
     1 C1      28.6959  14.8104  13.9764   C.3       1 RES1   0.0000
     2 C2      29.8583  13.8921  13.8726   C.2       1 RES1   0.0000
     3 N3      30.0430  12.8303  14.6456   N.2       1 RES1   0.0000
     4 C4      31.2270  12.2745  14.2341   C.2       1 RES1   0.0000
     5 C5      31.7850  12.9850  13.2080   C.2       1 RES1   0.0000
     6 C6      33.0450  12.7100  12.5110   C.2       1 RES1   0.0000
     7 C7      33.8664  11.6591  12.9033   C.2       1 RES1   0.0000
     8 C8      35.0468  11.4793  12.2095   C.2       1 RES1   0.0000
     9 N9      35.4320  12.2773  11.2105   N.2       1 RES1   0.0000
    10 C10     34.5903  13.2923  10.8883   C.2       1 RES1   0.0000
    11 N11     35.0355  14.0900   9.8673   N.2       1 RES1   0.0000
    12 C12     34.4653  15.2281   9.2468   C.2       1 RES1   0.0000
    13 C13     35.0808  16.4870   9.1991   C.2       1 RES1   0.0000
    14 C14     34.4567  17.5546   8.5810   C.2       1 RES1   0.0000
    15 C15     33.2051  17.3773   8.0133   C.2       1 RES1   0.0000
    16 S16     32.3879  18.7289   7.2183   S.o2      1 RES1   0.0000
    17 C17     33.0863  18.7868   5.6123   C.3       1 RES1   0.0000
    18 O18     31.0069  18.3781   7.0985   O.2       1 RES1   0.0000
    19 O19     32.7247  19.9464   7.8963   O.2       1 RES1   0.0000
    20 C20     32.5685  16.1479   8.0712   C.2       1 RES1   0.0000
    21 C21     33.1949  15.0793   8.6772   C.2       1 RES1   0.0000
    22 N22     33.4226  13.5449  11.5217   N.2       1 RES1   0.0000
    23 N23     30.8919  14.0413  12.9458   N.pl3     1 RES1   0.0000
    24 C24     31.0129  15.1048  11.9405   C.3       1 RES1   0.0000
    25 C25     31.1941  16.4650  12.5995   C.3       1 RES1   0.0000
    26 C26     29.8824  15.0677  10.9160   C.3       1 RES1   0.0000
@<TRIPOS>BOND
     1     1     2    1
     2     2     3    2
     3     3     4    1
     4     4     5    2
     5     5     6    1
     6     6     7    2
     7     7     8    1
     8     8     9    2
     9     9    10    1
    10    10    11    1
    11    11    12    1
    12    12    13    2
    13    13    14    1
    14    14    15    2
    15    15    16    1
    16    16    17    1
    17    16    18    2
    18    16    19    2
    19    15    20    1
    20    20    21    2
    21    10    22    2
    22     5    23    1
    23    23    24    1
    24    24    25    1
    25    24    26    1
    26    23     2    1
    27    22     6    1
    28    21    12    1
@<TRIPOS>SUBSTRUCTURE
     1 RES1        1 GROUP             0 ****  ****    0  
@<TRIPOS>MOLECULE
ligand_47
    26    28     1     0     0
SMALL
NO_CHARGES
****
Generated from the CSD

@<TRIPOS>ATOM
     1 C1      28.7058  14.8214  13.9900   C.3       1 RES1   0.0000
     2 C2      29.8625  13.8967  13.8784   C.2       1 RES1   0.0000
     3 N3      30.0383  12.8248  14.6393   N.2       1 RES1   0.0000
     4 C4      31.2198  12.2661  14.2242   C.2       1 RES1   0.0000
     5 C5      31.7850  12.9850  13.2080   C.2       1 RES1   0.0000
     6 C6      33.0450  12.7100  12.5110   C.2       1 RES1   0.0000
     7 C7      33.8664  11.6591  12.9033   C.2       1 RES1   0.0000
     8 C8      35.0468  11.4793  12.2095   C.2       1 RES1   0.0000
     9 N9      35.4320  12.2773  11.2105   N.2       1 RES1   0.0000
    10 C10     34.5903  13.2923  10.8883   C.2       1 RES1   0.0000
    11 N11     35.0355  14.0900   9.8673   N.2       1 RES1   0.0000
    12 C12     36.2164  14.0463   9.0870   C.2       1 RES1   0.0000
    13 C13     36.2303  13.9153   7.6911   C.2       1 RES1   0.0000
    14 C14     37.4260  13.8718   6.9983   C.2       1 RES1   0.0000
    15 C15     38.6212  13.9479   7.6955   C.2       1 RES1   0.0000
    16 S16     40.1622  13.8935   6.8302   S.o2      1 RES1   0.0000
    17 C17     40.4110  15.5329   6.2638   C.3       1 RES1   0.0000
    18 O18     41.1768  13.5879   7.7902   O.2       1 RES1   0.0000
    19 O19     40.0289  13.0406   5.6856   O.2       1 RES1   0.0000
    20 C20     38.6300  14.0527   9.0771   C.2       1 RES1   0.0000
    21 C21     37.4380  14.1078   9.7683   C.2       1 RES1   0.0000
    22 N22     33.4226  13.5449  11.5217   N.2       1 RES1   0.0000
    23 N23     30.8994  14.0501  12.9560   N.pl3     1 RES1   0.0000
    24 C24     31.0300  15.1245  11.9635   C.3       1 RES1   0.0000
    25 C25     30.9454  14.5756  10.5461   C.3       1 RES1   0.0000
    26 C26     32.2581  15.9964  12.2089   C.3       1 RES1   0.0000
@<TRIPOS>BOND
     1     1     2    1
     2     2     3    2
     3     3     4    1
     4     4     5    2
     5     5     6    1
     6     6     7    2
     7     7     8    1
     8     8     9    2
     9     9    10    1
    10    10    11    1
    11    11    12    1
    12    12    13    2
    13    13    14    1
    14    14    15    2
    15    15    16    1
    16    16    17    1
    17    16    18    2
    18    16    19    2
    19    15    20    1
    20    20    21    2
    21    10    22    2
    22     5    23    1
    23    23    24    1
    24    24    25    1
    25    24    26    1
    26    23     2    1
    27    22     6    1
    28    21    12    1
@<TRIPOS>SUBSTRUCTURE
     1 RES1        1 GROUP             0 ****  ****    0  
@<TRIPOS>MOLECULE
ligand_48
    26    28     1     0     0
SMALL
NO_CHARGES
****
Generated from the CSD

@<TRIPOS>ATOM
     1 C1      28.6690  14.7794  13.9400   C.3       1 RES1   0.0000
     2 C2      29.8469  13.8788  13.8573   C.2       1 RES1   0.0000
     3 N3      30.0557  12.8459  14.6625   N.2       1 RES1   0.0000
     4 C4      31.2467  12.2981  14.2603   C.2       1 RES1   0.0000
     5 C5      31.7850  12.9850  13.2080   C.2       1 RES1   0.0000
     6 C6      33.0450  12.7100  12.5110   C.2       1 RES1   0.0000
     7 C7      33.8664  11.6591  12.9033   C.2       1 RES1   0.0000
     8 C8      35.0468  11.4793  12.2095   C.2       1 RES1   0.0000
     9 N9      35.4320  12.2773  11.2105   N.2       1 RES1   0.0000
    10 C10     34.5903  13.2923  10.8883   C.2       1 RES1   0.0000
    11 N11     35.0355  14.0900   9.8673   N.2       1 RES1   0.0000
    12 C12     34.4505  15.2081   9.2247   C.2       1 RES1   0.0000
    13 C13     35.0101  16.4937   9.2226   C.2       1 RES1   0.0000
    14 C14     34.3743  17.5390   8.5787   C.2       1 RES1   0.0000
    15 C15     33.1661  17.3121   7.9391   C.2       1 RES1   0.0000
    16 S16     32.3349  18.6343   7.1100   S.o2      1 RES1   0.0000
    17 C17     33.1197  18.7406   5.5470   C.3       1 RES1   0.0000
    18 O18     30.9802  18.2234   6.9088   O.2       1 RES1   0.0000
    19 O19     32.5774  19.8582   7.8160   O.2       1 RES1   0.0000
    20 C20     32.5835  16.0549   7.9506   C.2       1 RES1   0.0000
    21 C21     33.2224  15.0088   8.5825   C.2       1 RES1   0.0000
    22 N22     33.4226  13.5449  11.5217   N.2       1 RES1   0.0000
    23 N23     30.8714  14.0164  12.9186   N.pl3     1 RES1   0.0000
    24 C24     30.9667  15.0490  11.8789   C.3       1 RES1   0.0000
    25 C25     30.7745  14.4510  10.4922   C.3       1 RES1   0.0000
    26 C26     32.2320  15.8919  12.0109   C.3       1 RES1   0.0000
@<TRIPOS>BOND
     1     1     2    1
     2     2     3    2
     3     3     4    1
     4     4     5    2
     5     5     6    1
     6     6     7    2
     7     7     8    1
     8     8     9    2
     9     9    10    1
    10    10    11    1
    11    11    12    1
    12    12    13    2
    13    13    14    1
    14    14    15    2
    15    15    16    1
    16    16    17    1
    17    16    18    2
    18    16    19    2
    19    15    20    1
    20    20    21    2
    21    10    22    2
    22     5    23    1
    23    23    24    1
    24    24    25    1
    25    24    26    1
    26    23     2    1
    27    22     6    1
    28    21    12    1
@<TRIPOS>SUBSTRUCTURE
     1 RES1        1 GROUP             0 ****  ****    0  
@<TRIPOS>MOLECULE
ligand_49
    26    28     1     0     0
SMALL
NO_CHARGES
****
Generated from the CSD

@<TRIPOS>ATOM
     1 C1      28.7463  14.8634  14.0466   C.3       1 RES1   0.0000
     2 C2      29.8796  13.9146  13.9023   C.2       1 RES1   0.0000
     3 N3      30.0190  12.8035  14.6129   N.2       1 RES1   0.0000
     4 C4      31.1900  12.2340  14.1832   C.2       1 RES1   0.0000
     5 C5      31.7850  12.9850  13.2080   C.2       1 RES1   0.0000
     6 C6      33.0450  12.7100  12.5110   C.2       1 RES1   0.0000
     7 C7      33.8664  11.6591  12.9033   C.2       1 RES1   0.0000
     8 C8      35.0468  11.4793  12.2095   C.2       1 RES1   0.0000
     9 N9      35.4320  12.2773  11.2105   N.2       1 RES1   0.0000
    10 C10     34.5903  13.2923  10.8883   C.2       1 RES1   0.0000
    11 N11     35.0355  14.0900   9.8673   N.2       1 RES1   0.0000
    12 C12     34.4791  15.2452   9.2662   C.2       1 RES1   0.0000
    13 C13     34.2287  16.4429   9.9508   C.2       1 RES1   0.0000
    14 C14     33.6748  17.5274   9.2961   C.2       1 RES1   0.0000
    15 C15     33.3551  17.4219   7.9518   C.2       1 RES1   0.0000
    16 S16     32.6451  18.7958   7.0945   S.o2      1 RES1   0.0000
    17 C17     30.9229  18.4731   7.0890   C.3       1 RES1   0.0000
    18 O18     32.8845  19.9605   7.8886   O.2       1 RES1   0.0000
    19 O19     33.1051  18.7912   5.7367   O.2       1 RES1   0.0000
    20 C20     33.5714  16.2393   7.2628   C.2       1 RES1   0.0000
    21 C21     34.1346  15.1607   7.9117   C.2       1 RES1   0.0000
    22 N22     33.4226  13.5449  11.5217   N.2       1 RES1   0.0000
    23 N23     30.9303  14.0840  12.9985   N.pl3     1 RES1   0.0000
    24 C24     31.0998  15.2004  12.0597   C.3       1 RES1   0.0000
    25 C25     31.1554  14.7046  10.6215   C.3       1 RES1   0.0000
    26 C26     32.2673  16.1069  12.4392   C.3       1 RES1   0.0000
@<TRIPOS>BOND
     1     1     2    1
     2     2     3    2
     3     3     4    1
     4     4     5    2
     5     5     6    1
     6     6     7    2
     7     7     8    1
     8     8     9    2
     9     9    10    1
    10    10    11    1
    11    11    12    1
    12    12    13    2
    13    13    14    1
    14    14    15    2
    15    15    16    1
    16    16    17    1
    17    16    18    2
    18    16    19    2
    19    15    20    1
    20    20    21    2
    21    10    22    2
    22     5    23    1
    23    23    24    1
    24    24    25    1
    25    24    26    1
    26    23     2    1
    27    22     6    1
    28    21    12    1
@<TRIPOS>SUBSTRUCTURE
     1 RES1        1 GROUP             0 ****  ****    0  
@<TRIPOS>MOLECULE
ligand_50
    26    28     1     0     0
SMALL
NO_CHARGES
****
Generated from the CSD

@<TRIPOS>ATOM
     1 C1      28.6944  14.8087  13.9743   C.3       1 RES1   0.0000
     2 C2      29.8576  13.8913  13.8717   C.2       1 RES1   0.0000
     3 N3      30.0437  12.8312  14.6466   N.2       1 RES1   0.0000
     4 C4      31.2281  12.2758  14.2356   C.2       1 RES1   0.0000
     5 C5      31.7850  12.9850  13.2080   C.2       1 RES1   0.0000
     6 C6      33.0450  12.7100  12.5110   C.2       1 RES1   0.0000
     7 C7      33.8664  11.6591  12.9033   C.2       1 RES1   0.0000
     8 C8      35.0468  11.4793  12.2095   C.2       1 RES1   0.0000
     9 N9      35.4320  12.2773  11.2105   N.2       1 RES1   0.0000
    10 C10     34.5903  13.2923  10.8883   C.2       1 RES1   0.0000
    11 N11     35.0355  14.0900   9.8673   N.2       1 RES1   0.0000
    12 C12     34.4653  15.2281   9.2468   C.2       1 RES1   0.0000
    13 C13     34.1334  16.4088   9.9262   C.2       1 RES1   0.0000
    14 C14     33.5712  17.4768   9.2518   C.2       1 RES1   0.0000
    15 C15     33.3247  17.3713   7.8923   C.2       1 RES1   0.0000
    16 S16     32.6056  18.7242   7.0096   S.o2      1 RES1   0.0000
    17 C17     33.9505  19.7924   6.6628   C.3       1 RES1   0.0000
    18 O18     32.1083  18.2070   5.7728   O.2       1 RES1   0.0000
    19 O19     31.6950  19.4178   7.8728   O.2       1 RES1   0.0000
    20 C20     33.6221  16.2044   7.2068   C.2       1 RES1   0.0000
    21 C21     34.1937  15.1427   7.8759   C.2       1 RES1   0.0000
    22 N22     33.4226  13.5449  11.5217   N.2       1 RES1   0.0000
    23 N23     30.8907  14.0400  12.9442   N.pl3     1 RES1   0.0000
    24 C24     31.0103  15.1017  11.9369   C.3       1 RES1   0.0000
    25 C25     31.2385  16.4567  12.5921   C.3       1 RES1   0.0000
    26 C26     29.8538  15.0913  10.9412   C.3       1 RES1   0.0000
@<TRIPOS>BOND
     1     1     2    1
     2     2     3    2
     3     3     4    1
     4     4     5    2
     5     5     6    1
     6     6     7    2
     7     7     8    1
     8     8     9    2
     9     9    10    1
    10    10    11    1
    11    11    12    1
    12    12    13    2
    13    13    14    1
    14    14    15    2
    15    15    16    1
    16    16    17    1
    17    16    18    2
    18    16    19    2
    19    15    20    1
    20    20    21    2
    21    10    22    2
    22     5    23    1
    23    23    24    1
    24    24    25    1
    25    24    26    1
    26    23     2    1
    27    22     6    1
    28    21    12    1
@<TRIPOS>SUBSTRUCTURE
     1 RES1        1 GROUP             0 ****  ****    0  
@<TRIPOS>MOLECULE
ligand_51
    26    28     1     0     0
SMALL
NO_CHARGES
****
Generated from the CSD

@<TRIPOS>ATOM
     1 C1      28.7463  14.8634  14.0466   C.3       1 RES1   0.0000
     2 C2      29.8796  13.9146  13.9023   C.2       1 RES1   0.0000
     3 N3      30.0190  12.8035  14.6129   N.2       1 RES1   0.0000
     4 C4      31.1900  12.2340  14.1832   C.2       1 RES1   0.0000
     5 C5      31.7850  12.9850  13.2080   C.2       1 RES1   0.0000
     6 C6      33.0450  12.7100  12.5110   C.2       1 RES1   0.0000
     7 C7      33.8664  11.6591  12.9033   C.2       1 RES1   0.0000
     8 C8      35.0468  11.4793  12.2095   C.2       1 RES1   0.0000
     9 N9      35.4320  12.2773  11.2105   N.2       1 RES1   0.0000
    10 C10     34.5903  13.2923  10.8883   C.2       1 RES1   0.0000
    11 N11     35.0355  14.0900   9.8673   N.2       1 RES1   0.0000
    12 C12     34.4791  15.2452   9.2662   C.2       1 RES1   0.0000
    13 C13     34.2287  16.4429   9.9508   C.2       1 RES1   0.0000
    14 C14     33.6748  17.5274   9.2961   C.2       1 RES1   0.0000
    15 C15     33.3551  17.4219   7.9518   C.2       1 RES1   0.0000
    16 S16     32.6451  18.7958   7.0945   S.o2      1 RES1   0.0000
    17 C17     34.0112  19.8077   6.6700   C.3       1 RES1   0.0000
    18 O18     32.0654  18.2897   5.8895   O.2       1 RES1   0.0000
    19 O19     31.8077  19.5309   7.9965   O.2       1 RES1   0.0000
    20 C20     33.5714  16.2393   7.2628   C.2       1 RES1   0.0000
    21 C21     34.1346  15.1607   7.9117   C.2       1 RES1   0.0000
    22 N22     33.4226  13.5449  11.5217   N.2       1 RES1   0.0000
    23 N23     30.9303  14.0840  12.9985   N.pl3     1 RES1   0.0000
    24 C24     31.0998  15.2004  12.0597   C.3       1 RES1   0.0000
    25 C25     31.1554  14.7046  10.6215   C.3       1 RES1   0.0000
    26 C26     32.2673  16.1069  12.4392   C.3       1 RES1   0.0000
@<TRIPOS>BOND
     1     1     2    1
     2     2     3    2
     3     3     4    1
     4     4     5    2
     5     5     6    1
     6     6     7    2
     7     7     8    1
     8     8     9    2
     9     9    10    1
    10    10    11    1
    11    11    12    1
    12    12    13    2
    13    13    14    1
    14    14    15    2
    15    15    16    1
    16    16    17    1
    17    16    18    2
    18    16    19    2
    19    15    20    1
    20    20    21    2
    21    10    22    2
    22     5    23    1
    23    23    24    1
    24    24    25    1
    25    24    26    1
    26    23     2    1
    27    22     6    1
    28    21    12    1
@<TRIPOS>SUBSTRUCTURE
     1 RES1        1 GROUP             0 ****  ****    0  
@<TRIPOS>MOLECULE
ligand_52
    26    28     1     0     0
SMALL
NO_CHARGES
****
Generated from the CSD

@<TRIPOS>ATOM
     1 C1      28.6024  14.6937  13.8534   C.3       1 RES1   0.0000
     2 C2      29.8187  13.8423  13.8207   C.2       1 RES1   0.0000
     3 N3      30.0872  12.8888  14.7025   N.2       1 RES1   0.0000
     4 C4      31.2954  12.3632  14.3227   C.2       1 RES1   0.0000
     5 C5      31.7850  12.9850  13.2080   C.2       1 RES1   0.0000
     6 C6      33.0450  12.7100  12.5110   C.2       1 RES1   0.0000
     7 C7      33.8008  13.7406  11.9635   C.2       1 RES1   0.0000
     8 C8      34.9645  13.3969  11.3042   C.2       1 RES1   0.0000
     9 N9      35.3700  12.1333  11.1553   N.2       1 RES1   0.0000
    10 C10     34.5781  11.1756  11.7013   C.2       1 RES1   0.0000
    11 N11     35.0292   9.8962  11.5107   N.2       1 RES1   0.0000
    12 C12     34.5122   8.6454  11.9274   C.2       1 RES1   0.0000
    13 C13     33.4116   8.4969  12.7832   C.2       1 RES1   0.0000
    14 C14     32.9694   7.2401  13.1526   C.2       1 RES1   0.0000
    15 C15     33.6303   6.1181  12.6786   C.2       1 RES1   0.0000
    16 S16     33.0828   4.5010  13.1385   S.o2      1 RES1   0.0000
    17 C17     34.1355   4.0353  14.4595   C.3       1 RES1   0.0000
    18 O18     31.7522   4.6322  13.6452   O.2       1 RES1   0.0000
    19 O19     33.3098   3.5997  12.0470   O.2       1 RES1   0.0000
    20 C20     34.7353   6.2432  11.8519   C.2       1 RES1   0.0000
    21 C21     35.1702   7.4959  11.4734   C.2       1 RES1   0.0000
    22 N22     33.4198  11.4243  12.3533   N.2       1 RES1   0.0000
    23 N23     30.8208  13.9480  12.8541   N.pl3     1 RES1   0.0000
    24 C24     30.8523  14.8954  11.7327   C.3       1 RES1   0.0000
    25 C25     31.2382  14.1980  10.4357   C.3       1 RES1   0.0000
    26 C26     31.6968  16.1294  12.0377   C.3       1 RES1   0.0000
@<TRIPOS>BOND
     1     1     2    1
     2     2     3    2
     3     3     4    1
     4     4     5    2
     5     5     6    1
     6     6     7    2
     7     7     8    1
     8     8     9    2
     9     9    10    1
    10    10    11    1
    11    11    12    1
    12    12    13    2
    13    13    14    1
    14    14    15    2
    15    15    16    1
    16    16    17    1
    17    16    18    2
    18    16    19    2
    19    15    20    1
    20    20    21    2
    21    10    22    2
    22     5    23    1
    23    23    24    1
    24    24    25    1
    25    24    26    1
    26    23     2    1
    27    22     6    1
    28    21    12    1
@<TRIPOS>SUBSTRUCTURE
     1 RES1        1 GROUP             0 ****  ****    0  
@<TRIPOS>MOLECULE
ligand_53
    26    28     1     0     0
SMALL
NO_CHARGES
****
Generated from the CSD

@<TRIPOS>ATOM
     1 C1      28.6026  14.6940  13.8537   C.3       1 RES1   0.0000
     2 C2      29.8188  13.8424  13.8208   C.2       1 RES1   0.0000
     3 N3      30.0871  12.8886  14.7024   N.2       1 RES1   0.0000
     4 C4      31.2952  12.3629  14.3225   C.2       1 RES1   0.0000
     5 C5      31.7850  12.9850  13.2080   C.2       1 RES1   0.0000
     6 C6      33.0450  12.7100  12.5110   C.2       1 RES1   0.0000
     7 C7      33.8008  13.7406  11.9635   C.2       1 RES1   0.0000
     8 C8      34.9645  13.3969  11.3042   C.2       1 RES1   0.0000
     9 N9      35.3700  12.1333  11.1553   N.2       1 RES1   0.0000
    10 C10     34.5781  11.1756  11.7013   C.2       1 RES1   0.0000
    11 N11     35.0292   9.8962  11.5107   N.2       1 RES1   0.0000
    12 C12     36.1531   9.3900  10.8135   C.2       1 RES1   0.0000
    13 C13     36.9891  10.1692  10.0013   C.2       1 RES1   0.0000
    14 C14     38.0648   9.6005   9.3448   C.2       1 RES1   0.0000
    15 C15     38.3095   8.2438   9.4849   C.2       1 RES1   0.0000
    16 S16     39.6789   7.4950   8.6540   S.o2      1 RES1   0.0000
    17 C17     38.9868   6.7846   7.2095   C.3       1 RES1   0.0000
    18 O18     40.5633   8.5476   8.2611   O.2       1 RES1   0.0000
    19 O19     40.2002   6.4357   9.4673   O.2       1 RES1   0.0000
    20 C20     37.4809   7.4510  10.2628   C.2       1 RES1   0.0000
    21 C21     36.4146   8.0192  10.9274   C.2       1 RES1   0.0000
    22 N22     33.4198  11.4243  12.3533   N.2       1 RES1   0.0000
    23 N23     30.8210  13.9483  12.8544   N.pl3     1 RES1   0.0000
    24 C24     30.8527  14.8960  11.7332   C.3       1 RES1   0.0000
    25 C25     31.2385  14.1990  10.4360   C.3       1 RES1   0.0000
    26 C26     31.6974  16.1297  12.0387   C.3       1 RES1   0.0000
@<TRIPOS>BOND
     1     1     2    1
     2     2     3    2
     3     3     4    1
     4     4     5    2
     5     5     6    1
     6     6     7    2
     7     7     8    1
     8     8     9    2
     9     9    10    1
    10    10    11    1
    11    11    12    1
    12    12    13    2
    13    13    14    1
    14    14    15    2
    15    15    16    1
    16    16    17    1
    17    16    18    2
    18    16    19    2
    19    15    20    1
    20    20    21    2
    21    10    22    2
    22     5    23    1
    23    23    24    1
    24    24    25    1
    25    24    26    1
    26    23     2    1
    27    22     6    1
    28    21    12    1
@<TRIPOS>SUBSTRUCTURE
     1 RES1        1 GROUP             0 ****  ****    0  
@<TRIPOS>MOLECULE
ligand_54
    26    28     1     0     0
SMALL
NO_CHARGES
****
Generated from the CSD

@<TRIPOS>ATOM
     1 C1      28.6031  14.6946  13.8542   C.3       1 RES1   0.0000
     2 C2      29.8189  13.8427  13.8210   C.2       1 RES1   0.0000
     3 N3      30.0869  12.8883  14.7021   N.2       1 RES1   0.0000
     4 C4      31.2949  12.3625  14.3221   C.2       1 RES1   0.0000
     5 C5      31.7850  12.9850  13.2080   C.2       1 RES1   0.0000
     6 C6      33.0450  12.7100  12.5110   C.2       1 RES1   0.0000
     7 C7      33.8008  13.7406  11.9635   C.2       1 RES1   0.0000
     8 C8      34.9645  13.3969  11.3042   C.2       1 RES1   0.0000
     9 N9      35.3700  12.1333  11.1553   N.2       1 RES1   0.0000
    10 C10     34.5781  11.1756  11.7013   C.2       1 RES1   0.0000
    11 N11     35.0292   9.8962  11.5107   N.2       1 RES1   0.0000
    12 C12     34.4807   8.6422  11.8743   C.2       1 RES1   0.0000
    13 C13     35.1694   7.4252  11.7726   C.2       1 RES1   0.0000
    14 C14     34.5630   6.2384  12.1402   C.2       1 RES1   0.0000
    15 C15     33.2570   6.2548  12.6034   C.2       1 RES1   0.0000
    16 S16     32.4613   4.7490  13.0785   S.o2      1 RES1   0.0000
    17 C17     31.5068   4.2919  11.6820   C.3       1 RES1   0.0000
    18 O18     33.4856   3.7692  13.2665   O.2       1 RES1   0.0000
    19 O19     31.5647   5.0136  14.1654   O.2       1 RES1   0.0000
    20 C20     32.5503   7.4436  12.6882   C.2       1 RES1   0.0000
    21 C21     33.1578   8.6294  12.3328   C.2       1 RES1   0.0000
    22 N22     33.4198  11.4243  12.3533   N.2       1 RES1   0.0000
    23 N23     30.8213  13.9487  12.8548   N.pl3     1 RES1   0.0000
    24 C24     30.8535  14.8971  11.7341   C.3       1 RES1   0.0000
    25 C25     31.2395  14.2007  10.4366   C.3       1 RES1   0.0000
    26 C26     31.6983  16.1305  12.0405   C.3       1 RES1   0.0000
@<TRIPOS>BOND
     1     1     2    1
     2     2     3    2
     3     3     4    1
     4     4     5    2
     5     5     6    1
     6     6     7    2
     7     7     8    1
     8     8     9    2
     9     9    10    1
    10    10    11    1
    11    11    12    1
    12    12    13    2
    13    13    14    1
    14    14    15    2
    15    15    16    1
    16    16    17    1
    17    16    18    2
    18    16    19    2
    19    15    20    1
    20    20    21    2
    21    10    22    2
    22     5    23    1
    23    23    24    1
    24    24    25    1
    25    24    26    1
    26    23     2    1
    27    22     6    1
    28    21    12    1
@<TRIPOS>SUBSTRUCTURE
     1 RES1        1 GROUP             0 ****  ****    0  
@<TRIPOS>MOLECULE
ligand_55
    26    28     1     0     0
SMALL
NO_CHARGES
****
Generated from the CSD

@<TRIPOS>ATOM
     1 C1      28.6026  14.6940  13.8537   C.3       1 RES1   0.0000
     2 C2      29.8188  13.8424  13.8208   C.2       1 RES1   0.0000
     3 N3      30.0871  12.8886  14.7024   N.2       1 RES1   0.0000
     4 C4      31.2952  12.3629  14.3225   C.2       1 RES1   0.0000
     5 C5      31.7850  12.9850  13.2080   C.2       1 RES1   0.0000
     6 C6      33.0450  12.7100  12.5110   C.2       1 RES1   0.0000
     7 C7      33.8008  13.7406  11.9635   C.2       1 RES1   0.0000
     8 C8      34.9645  13.3969  11.3042   C.2       1 RES1   0.0000
     9 N9      35.3700  12.1333  11.1553   N.2       1 RES1   0.0000
    10 C10     34.5781  11.1756  11.7013   C.2       1 RES1   0.0000
    11 N11     35.0292   9.8962  11.5107   N.2       1 RES1   0.0000
    12 C12     36.1531   9.3900  10.8135   C.2       1 RES1   0.0000
    13 C13     36.9891  10.1692  10.0013   C.2       1 RES1   0.0000
    14 C14     38.0648   9.6005   9.3448   C.2       1 RES1   0.0000
    15 C15     38.3095   8.2438   9.4849   C.2       1 RES1   0.0000
    16 S16     39.6789   7.4950   8.6540   S.o2      1 RES1   0.0000
    17 C17     41.0581   7.8298   9.6815   C.3       1 RES1   0.0000
    18 O18     39.4511   6.0835   8.6484   O.2       1 RES1   0.0000
    19 O19     39.8858   8.1562   7.3988   O.2       1 RES1   0.0000
    20 C20     37.4809   7.4510  10.2628   C.2       1 RES1   0.0000
    21 C21     36.4146   8.0192  10.9274   C.2       1 RES1   0.0000
    22 N22     33.4198  11.4243  12.3533   N.2       1 RES1   0.0000
    23 N23     30.8210  13.9483  12.8544   N.pl3     1 RES1   0.0000
    24 C24     30.8527  14.8960  11.7332   C.3       1 RES1   0.0000
    25 C25     31.2385  14.1990  10.4360   C.3       1 RES1   0.0000
    26 C26     31.6974  16.1297  12.0387   C.3       1 RES1   0.0000
@<TRIPOS>BOND
     1     1     2    1
     2     2     3    2
     3     3     4    1
     4     4     5    2
     5     5     6    1
     6     6     7    2
     7     7     8    1
     8     8     9    2
     9     9    10    1
    10    10    11    1
    11    11    12    1
    12    12    13    2
    13    13    14    1
    14    14    15    2
    15    15    16    1
    16    16    17    1
    17    16    18    2
    18    16    19    2
    19    15    20    1
    20    20    21    2
    21    10    22    2
    22     5    23    1
    23    23    24    1
    24    24    25    1
    25    24    26    1
    26    23     2    1
    27    22     6    1
    28    21    12    1
@<TRIPOS>SUBSTRUCTURE
     1 RES1        1 GROUP             0 ****  ****    0  
@<TRIPOS>MOLECULE
ligand_56
    26    28     1     0     0
SMALL
NO_CHARGES
****
Generated from the CSD

@<TRIPOS>ATOM
     1 C1      28.6684  14.7787  13.9392   C.3       1 RES1   0.0000
     2 C2      29.8466  13.8785  13.8569   C.2       1 RES1   0.0000
     3 N3      30.0560  12.8463  14.6629   N.2       1 RES1   0.0000
     4 C4      31.2472  12.2987  14.2609   C.2       1 RES1   0.0000
     5 C5      31.7850  12.9850  13.2080   C.2       1 RES1   0.0000
     6 C6      33.0450  12.7100  12.5110   C.2       1 RES1   0.0000
     7 C7      33.4902  11.4063  12.3230   C.2       1 RES1   0.0000
     8 C8      34.6977  11.2321  11.6759   C.2       1 RES1   0.0000
     9 N9      35.4502  12.2513  11.2537   N.2       1 RES1   0.0000
    10 C10     34.9636  13.4978  11.4820   C.2       1 RES1   0.0000
    11 N11     35.7772  14.5087  11.0429   N.2       1 RES1   0.0000
    12 C12     35.6533  15.9171  11.1238   C.2       1 RES1   0.0000
    13 C13     34.9966  16.5887  12.1647   C.2       1 RES1   0.0000
    14 C14     34.9096  17.9685  12.1700   C.2       1 RES1   0.0000
    15 C15     35.4691  18.6911  11.1283   C.2       1 RES1   0.0000
    16 S16     35.3692  20.4564  11.1141   S.o2      1 RES1   0.0000
    17 C17     34.0119  20.8153  10.0656   C.3       1 RES1   0.0000
    18 O18     35.0381  20.8730  12.4412   O.2       1 RES1   0.0000
    19 O19     36.5545  20.9895  10.5090   O.2       1 RES1   0.0000
    20 C20     36.1007  18.0456  10.0774   C.2       1 RES1   0.0000
    21 C21     36.1984  16.6701  10.0767   C.2       1 RES1   0.0000
    22 N22     33.7977  13.7569  12.1161   N.2       1 RES1   0.0000
    23 N23     30.8709  14.0158  12.9180   N.pl3     1 RES1   0.0000
    24 C24     30.9656  15.0476  11.8775   C.3       1 RES1   0.0000
    25 C25     31.2584  14.4301  10.5171   C.3       1 RES1   0.0000
    26 C26     31.9261  16.1708  12.2582   C.3       1 RES1   0.0000
@<TRIPOS>BOND
     1     1     2    1
     2     2     3    2
     3     3     4    1
     4     4     5    2
     5     5     6    1
     6     6     7    2
     7     7     8    1
     8     8     9    2
     9     9    10    1
    10    10    11    1
    11    11    12    1
    12    12    13    2
    13    13    14    1
    14    14    15    2
    15    15    16    1
    16    16    17    1
    17    16    18    2
    18    16    19    2
    19    15    20    1
    20    20    21    2
    21    10    22    2
    22     5    23    1
    23    23    24    1
    24    24    25    1
    25    24    26    1
    26    23     2    1
    27    22     6    1
    28    21    12    1
@<TRIPOS>SUBSTRUCTURE
     1 RES1        1 GROUP             0 ****  ****    0  
@<TRIPOS>MOLECULE
ligand_57
    26    28     1     0     0
SMALL
NO_CHARGES
****
Generated from the CSD

@<TRIPOS>ATOM
     1 C1      28.6983  14.8131  13.9796   C.3       1 RES1   0.0000
     2 C2      29.8593  13.8932  13.8740   C.2       1 RES1   0.0000
     3 N3      30.0418  12.8290  14.6441   N.2       1 RES1   0.0000
     4 C4      31.2253  12.2725  14.2317   C.2       1 RES1   0.0000
     5 C5      31.7850  12.9850  13.2080   C.2       1 RES1   0.0000
     6 C6      33.0450  12.7100  12.5110   C.2       1 RES1   0.0000
     7 C7      33.4902  11.4063  12.3230   C.2       1 RES1   0.0000
     8 C8      34.6977  11.2321  11.6759   C.2       1 RES1   0.0000
     9 N9      35.4502  12.2513  11.2537   N.2       1 RES1   0.0000
    10 C10     34.9636  13.4978  11.4820   C.2       1 RES1   0.0000
    11 N11     35.7772  14.5087  11.0429   N.2       1 RES1   0.0000
    12 C12     37.0665  14.4905  10.4574   C.2       1 RES1   0.0000
    13 C13     37.4881  15.3808   9.4597   C.2       1 RES1   0.0000
    14 C14     38.7622  15.2951   8.9300   C.2       1 RES1   0.0000
    15 C15     39.6250  14.3107   9.3849   C.2       1 RES1   0.0000
    16 S16     41.2589  14.1820   8.7212   S.o2      1 RES1   0.0000
    17 C17     41.1470  12.9222   7.5085   C.3       1 RES1   0.0000
    18 O18     41.5479  15.4183   8.0636   O.2       1 RES1   0.0000
    19 O19     42.1504  13.7336   9.7505   O.2       1 RES1   0.0000
    20 C20     39.2198  13.4052  10.3523   C.2       1 RES1   0.0000
    21 C21     37.9532  13.4969  10.8898   C.2       1 RES1   0.0000
    22 N22     33.7977  13.7569  12.1161   N.2       1 RES1   0.0000
    23 N23     30.8937  14.0434  12.9482   N.pl3     1 RES1   0.0000
    24 C24     31.0170  15.1095  11.9459   C.3       1 RES1   0.0000
    25 C25     31.2908  14.5341  10.5634   C.3       1 RES1   0.0000
    26 C26     32.0096  16.1900  12.3657   C.3       1 RES1   0.0000
@<TRIPOS>BOND
     1     1     2    1
     2     2     3    2
     3     3     4    1
     4     4     5    2
     5     5     6    1
     6     6     7    2
     7     7     8    1
     8     8     9    2
     9     9    10    1
    10    10    11    1
    11    11    12    1
    12    12    13    2
    13    13    14    1
    14    14    15    2
    15    15    16    1
    16    16    17    1
    17    16    18    2
    18    16    19    2
    19    15    20    1
    20    20    21    2
    21    10    22    2
    22     5    23    1
    23    23    24    1
    24    24    25    1
    25    24    26    1
    26    23     2    1
    27    22     6    1
    28    21    12    1
@<TRIPOS>SUBSTRUCTURE
     1 RES1        1 GROUP             0 ****  ****    0  
@<TRIPOS>MOLECULE
ligand_58
    26    28     1     0     0
SMALL
NO_CHARGES
****
Generated from the CSD

@<TRIPOS>ATOM
     1 C1      28.6684  14.7787  13.9392   C.3       1 RES1   0.0000
     2 C2      29.8466  13.8785  13.8569   C.2       1 RES1   0.0000
     3 N3      30.0560  12.8463  14.6629   N.2       1 RES1   0.0000
     4 C4      31.2472  12.2987  14.2609   C.2       1 RES1   0.0000
     5 C5      31.7850  12.9850  13.2080   C.2       1 RES1   0.0000
     6 C6      33.0450  12.7100  12.5110   C.2       1 RES1   0.0000
     7 C7      33.4902  11.4063  12.3230   C.2       1 RES1   0.0000
     8 C8      34.6977  11.2321  11.6759   C.2       1 RES1   0.0000
     9 N9      35.4502  12.2513  11.2537   N.2       1 RES1   0.0000
    10 C10     34.9636  13.4978  11.4820   C.2       1 RES1   0.0000
    11 N11     35.7772  14.5087  11.0429   N.2       1 RES1   0.0000
    12 C12     35.6533  15.9171  11.1238   C.2       1 RES1   0.0000
    13 C13     34.9966  16.5887  12.1647   C.2       1 RES1   0.0000
    14 C14     34.9096  17.9685  12.1700   C.2       1 RES1   0.0000
    15 C15     35.4691  18.6911  11.1283   C.2       1 RES1   0.0000
    16 S16     35.3692  20.4564  11.1141   S.o2      1 RES1   0.0000
    17 C17     36.6763  20.9831  12.1553   C.3       1 RES1   0.0000
    18 O18     35.6524  20.8862   9.7801   O.2       1 RES1   0.0000
    19 O19     34.1307  20.8620  11.7115   O.2       1 RES1   0.0000
    20 C20     36.1007  18.0456  10.0774   C.2       1 RES1   0.0000
    21 C21     36.1984  16.6701  10.0767   C.2       1 RES1   0.0000
    22 N22     33.7977  13.7569  12.1161   N.2       1 RES1   0.0000
    23 N23     30.8709  14.0158  12.9180   N.pl3     1 RES1   0.0000
    24 C24     30.9656  15.0476  11.8775   C.3       1 RES1   0.0000
    25 C25     31.2584  14.4301  10.5171   C.3       1 RES1   0.0000
    26 C26     31.9261  16.1708  12.2582   C.3       1 RES1   0.0000
@<TRIPOS>BOND
     1     1     2    1
     2     2     3    2
     3     3     4    1
     4     4     5    2
     5     5     6    1
     6     6     7    2
     7     7     8    1
     8     8     9    2
     9     9    10    1
    10    10    11    1
    11    11    12    1
    12    12    13    2
    13    13    14    1
    14    14    15    2
    15    15    16    1
    16    16    17    1
    17    16    18    2
    18    16    19    2
    19    15    20    1
    20    20    21    2
    21    10    22    2
    22     5    23    1
    23    23    24    1
    24    24    25    1
    25    24    26    1
    26    23     2    1
    27    22     6    1
    28    21    12    1
@<TRIPOS>SUBSTRUCTURE
     1 RES1        1 GROUP             0 ****  ****    0  
@<TRIPOS>MOLECULE
ligand_59
    26    28     1     0     0
SMALL
NO_CHARGES
****
Generated from the CSD

@<TRIPOS>ATOM
     1 C1      28.6983  14.8131  13.9796   C.3       1 RES1   0.0000
     2 C2      29.8593  13.8932  13.8740   C.2       1 RES1   0.0000
     3 N3      30.0418  12.8290  14.6441   N.2       1 RES1   0.0000
     4 C4      31.2253  12.2725  14.2317   C.2       1 RES1   0.0000
     5 C5      31.7850  12.9850  13.2080   C.2       1 RES1   0.0000
     6 C6      33.0450  12.7100  12.5110   C.2       1 RES1   0.0000
     7 C7      33.4902  11.4063  12.3230   C.2       1 RES1   0.0000
     8 C8      34.6977  11.2321  11.6759   C.2       1 RES1   0.0000
     9 N9      35.4502  12.2513  11.2537   N.2       1 RES1   0.0000
    10 C10     34.9636  13.4978  11.4820   C.2       1 RES1   0.0000
    11 N11     35.7772  14.5087  11.0429   N.2       1 RES1   0.0000
    12 C12     37.0665  14.4905  10.4574   C.2       1 RES1   0.0000
    13 C13     37.4881  15.3808   9.4597   C.2       1 RES1   0.0000
    14 C14     38.7622  15.2951   8.9300   C.2       1 RES1   0.0000
    15 C15     39.6250  14.3107   9.3849   C.2       1 RES1   0.0000
    16 S16     41.2589  14.1820   8.7212   S.o2      1 RES1   0.0000
    17 C17     42.1904  15.3772   9.6009   C.3       1 RES1   0.0000
    18 O18     41.7532  12.8839   9.0605   O.2       1 RES1   0.0000
    19 O19     41.2361  14.5619   7.3390   O.2       1 RES1   0.0000
    20 C20     39.2198  13.4052  10.3523   C.2       1 RES1   0.0000
    21 C21     37.9532  13.4969  10.8898   C.2       1 RES1   0.0000
    22 N22     33.7977  13.7569  12.1161   N.2       1 RES1   0.0000
    23 N23     30.8937  14.0434  12.9482   N.pl3     1 RES1   0.0000
    24 C24     31.0170  15.1095  11.9459   C.3       1 RES1   0.0000
    25 C25     31.2908  14.5341  10.5634   C.3       1 RES1   0.0000
    26 C26     32.0096  16.1900  12.3657   C.3       1 RES1   0.0000
@<TRIPOS>BOND
     1     1     2    1
     2     2     3    2
     3     3     4    1
     4     4     5    2
     5     5     6    1
     6     6     7    2
     7     7     8    1
     8     8     9    2
     9     9    10    1
    10    10    11    1
    11    11    12    1
    12    12    13    2
    13    13    14    1
    14    14    15    2
    15    15    16    1
    16    16    17    1
    17    16    18    2
    18    16    19    2
    19    15    20    1
    20    20    21    2
    21    10    22    2
    22     5    23    1
    23    23    24    1
    24    24    25    1
    25    24    26    1
    26    23     2    1
    27    22     6    1
    28    21    12    1
@<TRIPOS>SUBSTRUCTURE
     1 RES1        1 GROUP             0 ****  ****    0  
@<TRIPOS>MOLECULE
ligand_60
    26    28     1     0     0
SMALL
NO_CHARGES
****
Generated from the CSD

@<TRIPOS>ATOM
     1 C1      28.7831  14.8978  14.0995   C.3       1 RES1   0.0000
     2 C2      29.8952  13.9294  13.9247   C.2       1 RES1   0.0000
     3 N3      30.0015  12.7860  14.5882   N.2       1 RES1   0.0000
     4 C4      31.1631  12.2075  14.1449   C.2       1 RES1   0.0000
     5 C5      31.7850  12.9850  13.2080   C.2       1 RES1   0.0000
     6 C6      33.0450  12.7100  12.5110   C.2       1 RES1   0.0000
     7 C7      33.1764  12.9478  11.1475   C.2       1 RES1   0.0000
     8 C8      34.3887  12.6424  10.5610   C.2       1 RES1   0.0000
     9 N9      35.4117  12.1146  11.2379   N.2       1 RES1   0.0000
    10 C10     35.2113  11.8945  12.5623   C.2       1 RES1   0.0000
    11 N11     36.2841  11.3404  13.2094   N.2       1 RES1   0.0000
    12 C12     36.4808  10.9804  14.5648   C.2       1 RES1   0.0000
    13 C13     35.5699  11.2640  15.5923   C.2       1 RES1   0.0000
    14 C14     35.8363  10.8868  16.8954   C.2       1 RES1   0.0000
    15 C15     37.0220  10.2314  17.1868   C.2       1 RES1   0.0000
    16 S16     37.3839   9.7404  18.8465   S.o2      1 RES1   0.0000
    17 C17     38.4294  11.0034  19.4647   C.3       1 RES1   0.0000
    18 O18     36.1546   9.7736  19.5760   O.2       1 RES1   0.0000
    19 O19     38.1286   8.5156  18.8226   O.2       1 RES1   0.0000
    20 C20     37.9469   9.9637  16.1904   C.2       1 RES1   0.0000
    21 C21     37.6772  10.3290  14.8883   C.2       1 RES1   0.0000
    22 N22     34.0543  12.1550  13.2121   N.2       1 RES1   0.0000
    23 N23     30.9584  14.1120  13.0382   N.pl3     1 RES1   0.0000
    24 C24     31.1632  15.2630  12.1497   C.3       1 RES1   0.0000
    25 C25     30.6471  14.9725  10.7473   C.3       1 RES1   0.0000
    26 C26     32.6020  15.7708  12.1783   C.3       1 RES1   0.0000
@<TRIPOS>BOND
     1     1     2    1
     2     2     3    2
     3     3     4    1
     4     4     5    2
     5     5     6    1
     6     6     7    2
     7     7     8    1
     8     8     9    2
     9     9    10    1
    10    10    11    1
    11    11    12    1
    12    12    13    2
    13    13    14    1
    14    14    15    2
    15    15    16    1
    16    16    17    1
    17    16    18    2
    18    16    19    2
    19    15    20    1
    20    20    21    2
    21    10    22    2
    22     5    23    1
    23    23    24    1
    24    24    25    1
    25    24    26    1
    26    23     2    1
    27    22     6    1
    28    21    12    1
@<TRIPOS>SUBSTRUCTURE
     1 RES1        1 GROUP             0 ****  ****    0  
@<TRIPOS>MOLECULE
ligand_61
    26    28     1     0     0
SMALL
NO_CHARGES
****
Generated from the CSD

@<TRIPOS>ATOM
     1 C1      28.7827  14.8975  14.0989   C.3       1 RES1   0.0000
     2 C2      29.8950  13.9292  13.9244   C.2       1 RES1   0.0000
     3 N3      30.0017  12.7861  14.5885   N.2       1 RES1   0.0000
     4 C4      31.1633  12.2078  14.1453   C.2       1 RES1   0.0000
     5 C5      31.7850  12.9850  13.2080   C.2       1 RES1   0.0000
     6 C6      33.0450  12.7100  12.5110   C.2       1 RES1   0.0000
     7 C7      33.1764  12.9478  11.1475   C.2       1 RES1   0.0000
     8 C8      34.3887  12.6424  10.5610   C.2       1 RES1   0.0000
     9 N9      35.4117  12.1146  11.2379   N.2       1 RES1   0.0000
    10 C10     35.2113  11.8945  12.5623   C.2       1 RES1   0.0000
    11 N11     36.2841  11.3404  13.2094   N.2       1 RES1   0.0000
    12 C12     36.4596  10.9237  14.5514   C.2       1 RES1   0.0000
    13 C13     37.6937  10.5505  15.1023   C.2       1 RES1   0.0000
    14 C14     37.7843  10.1463  16.4214   C.2       1 RES1   0.0000
    15 C15     36.6394  10.1005  17.2007   C.2       1 RES1   0.0000
    16 S16     36.7315   9.5859  18.8899   S.o2      1 RES1   0.0000
    17 C17     36.2651   7.8971  18.8651   C.3       1 RES1   0.0000
    18 O18     38.1032   9.6705  19.2845   O.2       1 RES1   0.0000
    19 O19     35.7572  10.3075  19.6550   O.2       1 RES1   0.0000
    20 C20     35.4061  10.4412  16.6688   C.2       1 RES1   0.0000
    21 C21     35.3162  10.8557  15.3566   C.2       1 RES1   0.0000
    22 N22     34.0543  12.1550  13.2121   N.2       1 RES1   0.0000
    23 N23     30.9581  14.1118  13.0378   N.pl3     1 RES1   0.0000
    24 C24     31.1626  15.2624  12.1488   C.3       1 RES1   0.0000
    25 C25     30.6461  14.9713  10.7466   C.3       1 RES1   0.0000
    26 C26     32.6013  15.7704  12.1769   C.3       1 RES1   0.0000
@<TRIPOS>BOND
     1     1     2    1
     2     2     3    2
     3     3     4    1
     4     4     5    2
     5     5     6    1
     6     6     7    2
     7     7     8    1
     8     8     9    2
     9     9    10    1
    10    10    11    1
    11    11    12    1
    12    12    13    2
    13    13    14    1
    14    14    15    2
    15    15    16    1
    16    16    17    1
    17    16    18    2
    18    16    19    2
    19    15    20    1
    20    20    21    2
    21    10    22    2
    22     5    23    1
    23    23    24    1
    24    24    25    1
    25    24    26    1
    26    23     2    1
    27    22     6    1
    28    21    12    1
@<TRIPOS>SUBSTRUCTURE
     1 RES1        1 GROUP             0 ****  ****    0  
@<TRIPOS>MOLECULE
ligand_62
    26    28     1     0     0
SMALL
NO_CHARGES
****
Generated from the CSD

@<TRIPOS>ATOM
     1 C1      28.7830  14.8977  14.0994   C.3       1 RES1   0.0000
     2 C2      29.8952  13.9293  13.9246   C.2       1 RES1   0.0000
     3 N3      30.0016  12.7860  14.5883   N.2       1 RES1   0.0000
     4 C4      31.1631  12.2076  14.1449   C.2       1 RES1   0.0000
     5 C5      31.7850  12.9850  13.2080   C.2       1 RES1   0.0000
     6 C6      33.0450  12.7100  12.5110   C.2       1 RES1   0.0000
     7 C7      33.1764  12.9478  11.1475   C.2       1 RES1   0.0000
     8 C8      34.3887  12.6424  10.5610   C.2       1 RES1   0.0000
     9 N9      35.4117  12.1146  11.2379   N.2       1 RES1   0.0000
    10 C10     35.2113  11.8945  12.5623   C.2       1 RES1   0.0000
    11 N11     36.2841  11.3404  13.2094   N.2       1 RES1   0.0000
    12 C12     37.5518  10.9206  12.7380   C.2       1 RES1   0.0000
    13 C13     37.9032  10.8569  11.3821   C.2       1 RES1   0.0000
    14 C14     39.1603  10.4280  10.9984   C.2       1 RES1   0.0000
    15 C15     40.0760  10.0477  11.9665   C.2       1 RES1   0.0000
    16 S16     41.6892   9.4952  11.4987   S.o2      1 RES1   0.0000
    17 C17     41.5835   7.7463  11.5232   C.3       1 RES1   0.0000
    18 O18     41.9069   9.9163  10.1498   O.2       1 RES1   0.0000
    19 O19     42.6331   9.8999  12.4990   O.2       1 RES1   0.0000
    20 C20     39.7404  10.0793  13.3105   C.2       1 RES1   0.0000
    21 C21     38.4909  10.5179  13.6952   C.2       1 RES1   0.0000
    22 N22     34.0543  12.1550  13.2121   N.2       1 RES1   0.0000
    23 N23     30.9584  14.1120  13.0381   N.pl3     1 RES1   0.0000
    24 C24     31.1631  15.2629  12.1495   C.3       1 RES1   0.0000
    25 C25     30.6475  14.9720  10.7470   C.3       1 RES1   0.0000
    26 C26     32.6017  15.7711  12.1786   C.3       1 RES1   0.0000
@<TRIPOS>BOND
     1     1     2    1
     2     2     3    2
     3     3     4    1
     4     4     5    2
     5     5     6    1
     6     6     7    2
     7     7     8    1
     8     8     9    2
     9     9    10    1
    10    10    11    1
    11    11    12    1
    12    12    13    2
    13    13    14    1
    14    14    15    2
    15    15    16    1
    16    16    17    1
    17    16    18    2
    18    16    19    2
    19    15    20    1
    20    20    21    2
    21    10    22    2
    22     5    23    1
    23    23    24    1
    24    24    25    1
    25    24    26    1
    26    23     2    1
    27    22     6    1
    28    21    12    1
@<TRIPOS>SUBSTRUCTURE
     1 RES1        1 GROUP             0 ****  ****    0  
@<TRIPOS>MOLECULE
ligand_63
    26    28     1     0     0
SMALL
NO_CHARGES
****
Generated from the CSD

@<TRIPOS>ATOM
     1 C1      28.7830  14.8977  14.0994   C.3       1 RES1   0.0000
     2 C2      29.8952  13.9293  13.9246   C.2       1 RES1   0.0000
     3 N3      30.0016  12.7860  14.5883   N.2       1 RES1   0.0000
     4 C4      31.1631  12.2076  14.1449   C.2       1 RES1   0.0000
     5 C5      31.7850  12.9850  13.2080   C.2       1 RES1   0.0000
     6 C6      33.0450  12.7100  12.5110   C.2       1 RES1   0.0000
     7 C7      33.1764  12.9478  11.1475   C.2       1 RES1   0.0000
     8 C8      34.3887  12.6424  10.5610   C.2       1 RES1   0.0000
     9 N9      35.4117  12.1146  11.2379   N.2       1 RES1   0.0000
    10 C10     35.2113  11.8945  12.5623   C.2       1 RES1   0.0000
    11 N11     36.2841  11.3404  13.2094   N.2       1 RES1   0.0000
    12 C12     37.5518  10.9206  12.7380   C.2       1 RES1   0.0000
    13 C13     37.9032  10.8569  11.3821   C.2       1 RES1   0.0000
    14 C14     39.1603  10.4280  10.9984   C.2       1 RES1   0.0000
    15 C15     40.0760  10.0477  11.9665   C.2       1 RES1   0.0000
    16 S16     41.6892   9.4952  11.4987   S.o2      1 RES1   0.0000
    17 C17     42.6042  10.9668  11.2396   C.3       1 RES1   0.0000
    18 O18     42.2450   8.8092  12.6234   O.2       1 RES1   0.0000
    19 O19     41.6031   8.7967  10.2497   O.2       1 RES1   0.0000
    20 C20     39.7404  10.0793  13.3105   C.2       1 RES1   0.0000
    21 C21     38.4909  10.5179  13.6952   C.2       1 RES1   0.0000
    22 N22     34.0543  12.1550  13.2121   N.2       1 RES1   0.0000
    23 N23     30.9584  14.1120  13.0381   N.pl3     1 RES1   0.0000
    24 C24     31.1631  15.2629  12.1495   C.3       1 RES1   0.0000
    25 C25     30.6475  14.9720  10.7470   C.3       1 RES1   0.0000
    26 C26     32.6017  15.7711  12.1786   C.3       1 RES1   0.0000
@<TRIPOS>BOND
     1     1     2    1
     2     2     3    2
     3     3     4    1
     4     4     5    2
     5     5     6    1
     6     6     7    2
     7     7     8    1
     8     8     9    2
     9     9    10    1
    10    10    11    1
    11    11    12    1
    12    12    13    2
    13    13    14    1
    14    14    15    2
    15    15    16    1
    16    16    17    1
    17    16    18    2
    18    16    19    2
    19    15    20    1
    20    20    21    2
    21    10    22    2
    22     5    23    1
    23    23    24    1
    24    24    25    1
    25    24    26    1
    26    23     2    1
    27    22     6    1
    28    21    12    1
@<TRIPOS>SUBSTRUCTURE
     1 RES1        1 GROUP             0 ****  ****    0  
@<TRIPOS>MOLECULE
ligand_64
    26    28     1     0     0
SMALL
NO_CHARGES
****
Generated from the CSD

@<TRIPOS>ATOM
     1 C1      28.6342  14.7363  13.8942   C.3       1 RES1   0.0000
     2 C2      29.8322  13.8604  13.8379   C.2       1 RES1   0.0000
     3 N3      30.0721  12.8675  14.6837   N.2       1 RES1   0.0000
     4 C4      31.2721  12.3309  14.2934   C.2       1 RES1   0.0000
     5 C5      31.7850  12.9850  13.2080   C.2       1 RES1   0.0000
     6 C6      33.0450  12.7100  12.5110   C.2       1 RES1   0.0000
     7 C7      33.4902  11.4063  12.3230   C.2       1 RES1   0.0000
     8 C8      34.6977  11.2321  11.6759   C.2       1 RES1   0.0000
     9 N9      35.4502  12.2513  11.2537   N.2       1 RES1   0.0000
    10 C10     34.9636  13.4978  11.4820   C.2       1 RES1   0.0000
    11 N11     35.7772  14.5087  11.0429   N.2       1 RES1   0.0000
    12 C12     35.6030  15.9140  11.0233   C.2       1 RES1   0.0000
    13 C13     34.4046  16.5514  10.6722   C.2       1 RES1   0.0000
    14 C14     34.3139  17.9310  10.6687   C.2       1 RES1   0.0000
    15 C15     35.4244  18.6883  11.0059   C.2       1 RES1   0.0000
    16 S16     35.3315  20.4540  11.0075   S.o2      1 RES1   0.0000
    17 C17     36.0056  20.9350   9.4633   C.3       1 RES1   0.0000
    18 O18     33.9457  20.8056  11.0252   O.2       1 RES1   0.0000
    19 O19     36.1777  20.9684  12.0442   O.2       1 RES1   0.0000
    20 C20     36.6253  18.0786  11.3318   C.2       1 RES1   0.0000
    21 C21     36.7138  16.7025  11.3470   C.2       1 RES1   0.0000
    22 N22     33.7977  13.7569  12.1161   N.2       1 RES1   0.0000
    23 N23     30.8450  13.9820  12.8844   N.pl3     1 RES1   0.0000
    24 C24     30.9070  14.9717  11.8014   C.3       1 RES1   0.0000
    25 C25     31.2867  14.3169  10.4806   C.3       1 RES1   0.0000
    26 C26     31.7773  16.1727  12.1606   C.3       1 RES1   0.0000
@<TRIPOS>BOND
     1     1     2    1
     2     2     3    2
     3     3     4    1
     4     4     5    2
     5     5     6    1
     6     6     7    2
     7     7     8    1
     8     8     9    2
     9     9    10    1
    10    10    11    1
    11    11    12    1
    12    12    13    2
    13    13    14    1
    14    14    15    2
    15    15    16    1
    16    16    17    1
    17    16    18    2
    18    16    19    2
    19    15    20    1
    20    20    21    2
    21    10    22    2
    22     5    23    1
    23    23    24    1
    24    24    25    1
    25    24    26    1
    26    23     2    1
    27    22     6    1
    28    21    12    1
@<TRIPOS>SUBSTRUCTURE
     1 RES1        1 GROUP             0 ****  ****    0  
@<TRIPOS>MOLECULE
ligand_65
    26    28     1     0     0
SMALL
NO_CHARGES
****
Generated from the CSD

@<TRIPOS>ATOM
     1 C1      28.6342  14.7363  13.8942   C.3       1 RES1   0.0000
     2 C2      29.8322  13.8604  13.8379   C.2       1 RES1   0.0000
     3 N3      30.0721  12.8675  14.6837   N.2       1 RES1   0.0000
     4 C4      31.2721  12.3309  14.2934   C.2       1 RES1   0.0000
     5 C5      31.7850  12.9850  13.2080   C.2       1 RES1   0.0000
     6 C6      33.0450  12.7100  12.5110   C.2       1 RES1   0.0000
     7 C7      33.4902  11.4063  12.3230   C.2       1 RES1   0.0000
     8 C8      34.6977  11.2321  11.6759   C.2       1 RES1   0.0000
     9 N9      35.4502  12.2513  11.2537   N.2       1 RES1   0.0000
    10 C10     34.9636  13.4978  11.4820   C.2       1 RES1   0.0000
    11 N11     35.7772  14.5087  11.0429   N.2       1 RES1   0.0000
    12 C12     35.6030  15.9140  11.0233   C.2       1 RES1   0.0000
    13 C13     34.4046  16.5514  10.6722   C.2       1 RES1   0.0000
    14 C14     34.3139  17.9310  10.6687   C.2       1 RES1   0.0000
    15 C15     35.4244  18.6883  11.0059   C.2       1 RES1   0.0000
    16 S16     35.3315  20.4540  11.0075   S.o2      1 RES1   0.0000
    17 C17     34.6109  20.8589  12.5524   C.3       1 RES1   0.0000
    18 O18     36.6728  20.9490  10.9905   O.2       1 RES1   0.0000
    19 O19     34.4360  20.8786   9.9716   O.2       1 RES1   0.0000
    20 C20     36.6253  18.0786  11.3318   C.2       1 RES1   0.0000
    21 C21     36.7138  16.7025  11.3470   C.2       1 RES1   0.0000
    22 N22     33.7977  13.7569  12.1161   N.2       1 RES1   0.0000
    23 N23     30.8450  13.9820  12.8844   N.pl3     1 RES1   0.0000
    24 C24     30.9070  14.9717  11.8014   C.3       1 RES1   0.0000
    25 C25     31.2867  14.3169  10.4806   C.3       1 RES1   0.0000
    26 C26     31.7773  16.1727  12.1606   C.3       1 RES1   0.0000
@<TRIPOS>BOND
     1     1     2    1
     2     2     3    2
     3     3     4    1
     4     4     5    2
     5     5     6    1
     6     6     7    2
     7     7     8    1
     8     8     9    2
     9     9    10    1
    10    10    11    1
    11    11    12    1
    12    12    13    2
    13    13    14    1
    14    14    15    2
    15    15    16    1
    16    16    17    1
    17    16    18    2
    18    16    19    2
    19    15    20    1
    20    20    21    2
    21    10    22    2
    22     5    23    1
    23    23    24    1
    24    24    25    1
    25    24    26    1
    26    23     2    1
    27    22     6    1
    28    21    12    1
@<TRIPOS>SUBSTRUCTURE
     1 RES1        1 GROUP             0 ****  ****    0  
@<TRIPOS>MOLECULE
ligand_66
    26    28     1     0     0
SMALL
NO_CHARGES
****
Generated from the CSD

@<TRIPOS>ATOM
     1 C1      28.7312  14.8482  14.0253   C.3       1 RES1   0.0000
     2 C2      29.8732  13.9082  13.8933   C.2       1 RES1   0.0000
     3 N3      30.0262  12.8112  14.6229   N.2       1 RES1   0.0000
     4 C4      31.2011  12.2456  14.1987   C.2       1 RES1   0.0000
     5 C5      31.7850  12.9850  13.2080   C.2       1 RES1   0.0000
     6 C6      33.0450  12.7100  12.5110   C.2       1 RES1   0.0000
     7 C7      34.1641  12.2619  13.2037   C.2       1 RES1   0.0000
     8 C8      35.3191  12.0464  12.4779   C.2       1 RES1   0.0000
     9 N9      35.4053  12.2714  11.1645   N.2       1 RES1   0.0000
    10 C10     34.2803  12.7219  10.5528   C.2       1 RES1   0.0000
    11 N11     34.4228  12.9501   9.2096   N.2       1 RES1   0.0000
    12 C12     33.5039  13.3980   8.2296   C.2       1 RES1   0.0000
    13 C13     32.1358  13.5921   8.4671   C.2       1 RES1   0.0000
    14 C14     31.2984  14.0245   7.4556   C.2       1 RES1   0.0000
    15 C15     31.8185  14.2570   6.1923   C.2       1 RES1   0.0000
    16 S16     30.7660  14.8096   4.8834   S.o2      1 RES1   0.0000
    17 C17     29.7131  13.4478   4.5559   C.3       1 RES1   0.0000
    18 O18     29.9725  15.8806   5.4010   O.2       1 RES1   0.0000
    19 O19     31.5586  15.0532   3.7138   O.2       1 RES1   0.0000
    20 C20     33.1629  14.0474   5.9301   C.2       1 RES1   0.0000
    21 C21     34.0014  13.6273   6.9411   C.2       1 RES1   0.0000
    22 N22     33.1128  12.9683  11.1892   N.2       1 RES1   0.0000
    23 N23     30.9188  14.0717  12.9824   N.pl3     1 RES1   0.0000
    24 C24     31.0737  15.1729  12.0234   C.3       1 RES1   0.0000
    25 C25     31.2715  16.5013  12.7402   C.3       1 RES1   0.0000
    26 C26     29.9568  15.1998  10.9838   C.3       1 RES1   0.0000
@<TRIPOS>BOND
     1     1     2    1
     2     2     3    2
     3     3     4    1
     4     4     5    2
     5     5     6    1
     6     6     7    2
     7     7     8    1
     8     8     9    2
     9     9    10    1
    10    10    11    1
    11    11    12    1
    12    12    13    2
    13    13    14    1
    14    14    15    2
    15    15    16    1
    16    16    17    1
    17    16    18    2
    18    16    19    2
    19    15    20    1
    20    20    21    2
    21    10    22    2
    22     5    23    1
    23    23    24    1
    24    24    25    1
    25    24    26    1
    26    23     2    1
    27    22     6    1
    28    21    12    1
@<TRIPOS>SUBSTRUCTURE
     1 RES1        1 GROUP             0 ****  ****    0  
@<TRIPOS>MOLECULE
ligand_67
    26    28     1     0     0
SMALL
NO_CHARGES
****
Generated from the CSD

@<TRIPOS>ATOM
     1 C1      28.7338  14.8508  14.0289   C.3       1 RES1   0.0000
     2 C2      29.8743  13.9093  13.8948   C.2       1 RES1   0.0000
     3 N3      30.0250  12.8099  14.6212   N.2       1 RES1   0.0000
     4 C4      31.1992  12.2436  14.1960   C.2       1 RES1   0.0000
     5 C5      31.7850  12.9850  13.2080   C.2       1 RES1   0.0000
     6 C6      33.0450  12.7100  12.5110   C.2       1 RES1   0.0000
     7 C7      34.1641  12.2619  13.2037   C.2       1 RES1   0.0000
     8 C8      35.3191  12.0464  12.4779   C.2       1 RES1   0.0000
     9 N9      35.4053  12.2714  11.1645   N.2       1 RES1   0.0000
    10 C10     34.2803  12.7219  10.5528   C.2       1 RES1   0.0000
    11 N11     34.4228  12.9501   9.2096   N.2       1 RES1   0.0000
    12 C12     35.5272  12.7806   8.3395   C.2       1 RES1   0.0000
    13 C13     36.5139  11.7984   8.5058   C.2       1 RES1   0.0000
    14 C14     37.5686  11.7003   7.6174   C.2       1 RES1   0.0000
    15 C15     37.6539  12.5907   6.5590   C.2       1 RES1   0.0000
    16 S16     38.9945  12.4844   5.4110   S.o2      1 RES1   0.0000
    17 C17     40.1433  13.6892   5.9577   C.3       1 RES1   0.0000
    18 O18     39.5855  11.1919   5.5680   O.2       1 RES1   0.0000
    19 O19     38.5306  12.8672   4.1096   O.2       1 RES1   0.0000
    20 C20     36.7029  13.5845   6.3908   C.2       1 RES1   0.0000
    21 C21     35.6441  13.6761   7.2695   C.2       1 RES1   0.0000
    22 N22     33.1128  12.9683  11.1892   N.2       1 RES1   0.0000
    23 N23     30.9207  14.0739  12.9852   N.pl3     1 RES1   0.0000
    24 C24     31.0782  15.1777  12.0296   C.3       1 RES1   0.0000
    25 C25     31.6208  16.4239  12.7151   C.3       1 RES1   0.0000
    26 C26     29.8104  15.4295  11.2183   C.3       1 RES1   0.0000
@<TRIPOS>BOND
     1     1     2    1
     2     2     3    2
     3     3     4    1
     4     4     5    2
     5     5     6    1
     6     6     7    2
     7     7     8    1
     8     8     9    2
     9     9    10    1
    10    10    11    1
    11    11    12    1
    12    12    13    2
    13    13    14    1
    14    14    15    2
    15    15    16    1
    16    16    17    1
    17    16    18    2
    18    16    19    2
    19    15    20    1
    20    20    21    2
    21    10    22    2
    22     5    23    1
    23    23    24    1
    24    24    25    1
    25    24    26    1
    26    23     2    1
    27    22     6    1
    28    21    12    1
@<TRIPOS>SUBSTRUCTURE
     1 RES1        1 GROUP             0 ****  ****    0  
@<TRIPOS>MOLECULE
ligand_68
    26    28     1     0     0
SMALL
NO_CHARGES
****
Generated from the CSD

@<TRIPOS>ATOM
     1 C1      28.7808  14.8957  14.0961   C.3       1 RES1   0.0000
     2 C2      29.8942  13.9285  13.9233   C.2       1 RES1   0.0000
     3 N3      30.0026  12.7870  14.5898   N.2       1 RES1   0.0000
     4 C4      31.1647  12.2091  14.1473   C.2       1 RES1   0.0000
     5 C5      31.7850  12.9850  13.2080   C.2       1 RES1   0.0000
     6 C6      33.0450  12.7100  12.5110   C.2       1 RES1   0.0000
     7 C7      34.1641  12.2619  13.2037   C.2       1 RES1   0.0000
     8 C8      35.3191  12.0464  12.4779   C.2       1 RES1   0.0000
     9 N9      35.4053  12.2714  11.1645   N.2       1 RES1   0.0000
    10 C10     34.2803  12.7219  10.5528   C.2       1 RES1   0.0000
    11 N11     34.4228  12.9501   9.2096   N.2       1 RES1   0.0000
    12 C12     33.5440  13.5153   8.2538   C.2       1 RES1   0.0000
    13 C13     32.7016  14.6063   8.5108   C.2       1 RES1   0.0000
    14 C14     31.8637  15.0979   7.5271   C.2       1 RES1   0.0000
    15 C15     31.8514  14.4965   6.2787   C.2       1 RES1   0.0000
    16 S16     30.7873  15.1080   5.0058   S.o2      1 RES1   0.0000
    17 C17     29.3882  14.0542   5.0530   C.3       1 RES1   0.0000
    18 O18     30.3768  16.4223   5.3914   O.2       1 RES1   0.0000
    19 O19     31.4299  14.9409   3.7352   O.2       1 RES1   0.0000
    20 C20     32.6577  13.4017   6.0116   C.2       1 RES1   0.0000
    21 C21     33.5023  12.9177   6.9883   C.2       1 RES1   0.0000
    22 N22     33.1128  12.9683  11.1892   N.2       1 RES1   0.0000
    23 N23     30.9566  14.1103  13.0357   N.pl3     1 RES1   0.0000
    24 C24     31.1592  15.2593  12.1440   C.3       1 RES1   0.0000
    25 C25     30.6510  14.9610  10.7403   C.3       1 RES1   0.0000
    26 C26     32.5951  15.7749  12.1773   C.3       1 RES1   0.0000
@<TRIPOS>BOND
     1     1     2    1
     2     2     3    2
     3     3     4    1
     4     4     5    2
     5     5     6    1
     6     6     7    2
     7     7     8    1
     8     8     9    2
     9     9    10    1
    10    10    11    1
    11    11    12    1
    12    12    13    2
    13    13    14    1
    14    14    15    2
    15    15    16    1
    16    16    17    1
    17    16    18    2
    18    16    19    2
    19    15    20    1
    20    20    21    2
    21    10    22    2
    22     5    23    1
    23    23    24    1
    24    24    25    1
    25    24    26    1
    26    23     2    1
    27    22     6    1
    28    21    12    1
@<TRIPOS>SUBSTRUCTURE
     1 RES1        1 GROUP             0 ****  ****    0  
@<TRIPOS>MOLECULE
ligand_69
    26    28     1     0     0
SMALL
NO_CHARGES
****
Generated from the CSD

@<TRIPOS>ATOM
     1 C1      28.7338  14.8508  14.0289   C.3       1 RES1   0.0000
     2 C2      29.8743  13.9093  13.8948   C.2       1 RES1   0.0000
     3 N3      30.0250  12.8099  14.6212   N.2       1 RES1   0.0000
     4 C4      31.1992  12.2436  14.1960   C.2       1 RES1   0.0000
     5 C5      31.7850  12.9850  13.2080   C.2       1 RES1   0.0000
     6 C6      33.0450  12.7100  12.5110   C.2       1 RES1   0.0000
     7 C7      34.1641  12.2619  13.2037   C.2       1 RES1   0.0000
     8 C8      35.3191  12.0464  12.4779   C.2       1 RES1   0.0000
     9 N9      35.4053  12.2714  11.1645   N.2       1 RES1   0.0000
    10 C10     34.2803  12.7219  10.5528   C.2       1 RES1   0.0000
    11 N11     34.4228  12.9501   9.2096   N.2       1 RES1   0.0000
    12 C12     35.5272  12.7806   8.3395   C.2       1 RES1   0.0000
    13 C13     36.5139  11.7984   8.5058   C.2       1 RES1   0.0000
    14 C14     37.5686  11.7003   7.6174   C.2       1 RES1   0.0000
    15 C15     37.6539  12.5907   6.5590   C.2       1 RES1   0.0000
    16 S16     38.9945  12.4844   5.4110   S.o2      1 RES1   0.0000
    17 C17     38.5183  11.2261   4.2883   C.3       1 RES1   0.0000
    18 O18     39.0463  13.7258   4.7035   O.2       1 RES1   0.0000
    19 O19     40.1713  12.0449   6.1019   O.2       1 RES1   0.0000
    20 C20     36.7029  13.5845   6.3908   C.2       1 RES1   0.0000
    21 C21     35.6441  13.6761   7.2695   C.2       1 RES1   0.0000
    22 N22     33.1128  12.9683  11.1892   N.2       1 RES1   0.0000
    23 N23     30.9207  14.0739  12.9852   N.pl3     1 RES1   0.0000
    24 C24     31.0782  15.1777  12.0296   C.3       1 RES1   0.0000
    25 C25     31.6208  16.4239  12.7151   C.3       1 RES1   0.0000
    26 C26     29.8104  15.4295  11.2183   C.3       1 RES1   0.0000
@<TRIPOS>BOND
     1     1     2    1
     2     2     3    2
     3     3     4    1
     4     4     5    2
     5     5     6    1
     6     6     7    2
     7     7     8    1
     8     8     9    2
     9     9    10    1
    10    10    11    1
    11    11    12    1
    12    12    13    2
    13    13    14    1
    14    14    15    2
    15    15    16    1
    16    16    17    1
    17    16    18    2
    18    16    19    2
    19    15    20    1
    20    20    21    2
    21    10    22    2
    22     5    23    1
    23    23    24    1
    24    24    25    1
    25    24    26    1
    26    23     2    1
    27    22     6    1
    28    21    12    1
@<TRIPOS>SUBSTRUCTURE
     1 RES1        1 GROUP             0 ****  ****    0  
@<TRIPOS>MOLECULE
ligand_70
    26    28     1     0     0
SMALL
NO_CHARGES
****
Generated from the CSD

@<TRIPOS>ATOM
     1 C1      28.7808  14.8957  14.0961   C.3       1 RES1   0.0000
     2 C2      29.8942  13.9285  13.9233   C.2       1 RES1   0.0000
     3 N3      30.0026  12.7870  14.5898   N.2       1 RES1   0.0000
     4 C4      31.1647  12.2091  14.1473   C.2       1 RES1   0.0000
     5 C5      31.7850  12.9850  13.2080   C.2       1 RES1   0.0000
     6 C6      33.0450  12.7100  12.5110   C.2       1 RES1   0.0000
     7 C7      34.1641  12.2619  13.2037   C.2       1 RES1   0.0000
     8 C8      35.3191  12.0464  12.4779   C.2       1 RES1   0.0000
     9 N9      35.4053  12.2714  11.1645   N.2       1 RES1   0.0000
    10 C10     34.2803  12.7219  10.5528   C.2       1 RES1   0.0000
    11 N11     34.4228  12.9501   9.2096   N.2       1 RES1   0.0000
    12 C12     33.5440  13.5153   8.2538   C.2       1 RES1   0.0000
    13 C13     32.7016  14.6063   8.5108   C.2       1 RES1   0.0000
    14 C14     31.8637  15.0979   7.5271   C.2       1 RES1   0.0000
    15 C15     31.8514  14.4965   6.2787   C.2       1 RES1   0.0000
    16 S16     30.7873  15.1080   5.0058   S.o2      1 RES1   0.0000
    17 C17     31.6525  16.4686   4.3199   C.3       1 RES1   0.0000
    18 O18     30.6875  14.0869   4.0098   O.2       1 RES1   0.0000
    19 O19     29.5788  15.6003   5.5995   O.2       1 RES1   0.0000
    20 C20     32.6577  13.4017   6.0116   C.2       1 RES1   0.0000
    21 C21     33.5023  12.9177   6.9883   C.2       1 RES1   0.0000
    22 N22     33.1128  12.9683  11.1892   N.2       1 RES1   0.0000
    23 N23     30.9566  14.1103  13.0357   N.pl3     1 RES1   0.0000
    24 C24     31.1592  15.2593  12.1440   C.3       1 RES1   0.0000
    25 C25     30.6510  14.9610  10.7403   C.3       1 RES1   0.0000
    26 C26     32.5951  15.7749  12.1773   C.3       1 RES1   0.0000
@<TRIPOS>BOND
     1     1     2    1
     2     2     3    2
     3     3     4    1
     4     4     5    2
     5     5     6    1
     6     6     7    2
     7     7     8    1
     8     8     9    2
     9     9    10    1
    10    10    11    1
    11    11    12    1
    12    12    13    2
    13    13    14    1
    14    14    15    2
    15    15    16    1
    16    16    17    1
    17    16    18    2
    18    16    19    2
    19    15    20    1
    20    20    21    2
    21    10    22    2
    22     5    23    1
    23    23    24    1
    24    24    25    1
    25    24    26    1
    26    23     2    1
    27    22     6    1
    28    21    12    1
@<TRIPOS>SUBSTRUCTURE
     1 RES1        1 GROUP             0 ****  ****    0  
@<TRIPOS>MOLECULE
ligand_71
    26    28     1     0     0
SMALL
NO_CHARGES
****
Generated from the CSD

@<TRIPOS>ATOM
     1 C1      28.6035  14.6952  13.8548   C.3       1 RES1   0.0000
     2 C2      29.8191  13.8429  13.8213   C.2       1 RES1   0.0000
     3 N3      30.0867  12.8880  14.7019   N.2       1 RES1   0.0000
     4 C4      31.2946  12.3620  14.3217   C.2       1 RES1   0.0000
     5 C5      31.7850  12.9850  13.2080   C.2       1 RES1   0.0000
     6 C6      33.0450  12.7100  12.5110   C.2       1 RES1   0.0000
     7 C7      33.8008  13.7406  11.9635   C.2       1 RES1   0.0000
     8 C8      34.9645  13.3969  11.3042   C.2       1 RES1   0.0000
     9 N9      35.3700  12.1333  11.1553   N.2       1 RES1   0.0000
    10 C10     34.5781  11.1756  11.7013   C.2       1 RES1   0.0000
    11 N11     35.0292   9.8962  11.5107   N.2       1 RES1   0.0000
    12 C12     36.1929   9.3943  10.8787   C.2       1 RES1   0.0000
    13 C13     36.2195   8.2362  10.0888   C.2       1 RES1   0.0000
    14 C14     37.3984   7.8036   9.5103   C.2       1 RES1   0.0000
    15 C15     38.5658   8.5188   9.7246   C.2       1 RES1   0.0000
    16 S16     40.0850   7.9837   8.9953   S.o2      1 RES1   0.0000
    17 C17     40.9007   7.0985  10.2686   C.3       1 RES1   0.0000
    18 O18     39.7533   7.0676   7.9487   O.2       1 RES1   0.0000
    19 O19     40.8798   9.1313   8.6690   O.2       1 RES1   0.0000
    20 C20     38.5661   9.6519  10.5222   C.2       1 RES1   0.0000
    21 C21     37.3888  10.0910  11.0903   C.2       1 RES1   0.0000
    22 N22     33.4198  11.4243  12.3533   N.2       1 RES1   0.0000
    23 N23     30.8216  13.9492  12.8552   N.pl3     1 RES1   0.0000
    24 C24     30.8542  14.8982  11.7351   C.3       1 RES1   0.0000
    25 C25     31.2394  14.2022  10.4371   C.3       1 RES1   0.0000
    26 C26     31.7001  16.1308  12.0419   C.3       1 RES1   0.0000
@<TRIPOS>BOND
     1     1     2    1
     2     2     3    2
     3     3     4    1
     4     4     5    2
     5     5     6    1
     6     6     7    2
     7     7     8    1
     8     8     9    2
     9     9    10    1
    10    10    11    1
    11    11    12    1
    12    12    13    2
    13    13    14    1
    14    14    15    2
    15    15    16    1
    16    16    17    1
    17    16    18    2
    18    16    19    2
    19    15    20    1
    20    20    21    2
    21    10    22    2
    22     5    23    1
    23    23    24    1
    24    24    25    1
    25    24    26    1
    26    23     2    1
    27    22     6    1
    28    21    12    1
@<TRIPOS>SUBSTRUCTURE
     1 RES1        1 GROUP             0 ****  ****    0  
@<TRIPOS>MOLECULE
ligand_72
    26    28     1     0     0
SMALL
NO_CHARGES
****
Generated from the CSD

@<TRIPOS>ATOM
     1 C1      28.6037  14.6956  13.8551   C.3       1 RES1   0.0000
     2 C2      29.8192  13.8431  13.8214   C.2       1 RES1   0.0000
     3 N3      30.0865  12.8878  14.7017   N.2       1 RES1   0.0000
     4 C4      31.2944  12.3617  14.3215   C.2       1 RES1   0.0000
     5 C5      31.7850  12.9850  13.2080   C.2       1 RES1   0.0000
     6 C6      33.0450  12.7100  12.5110   C.2       1 RES1   0.0000
     7 C7      33.8008  13.7406  11.9635   C.2       1 RES1   0.0000
     8 C8      34.9645  13.3969  11.3042   C.2       1 RES1   0.0000
     9 N9      35.3700  12.1333  11.1553   N.2       1 RES1   0.0000
    10 C10     34.5781  11.1756  11.7013   C.2       1 RES1   0.0000
    11 N11     35.0292   9.8962  11.5107   N.2       1 RES1   0.0000
    12 C12     34.4994   8.6440  11.9065   C.2       1 RES1   0.0000
    13 C13     35.2823   7.5500  12.3017   C.2       1 RES1   0.0000
    14 C14     34.6914   6.3548  12.6673   C.2       1 RES1   0.0000
    15 C15     33.3111   6.2374  12.6312   C.2       1 RES1   0.0000
    16 S16     32.5339   4.7180  13.0937   S.o2      1 RES1   0.0000
    17 C17     32.4638   4.7704  14.8438   C.3       1 RES1   0.0000
    18 O18     31.1976   4.7538  12.5864   O.2       1 RES1   0.0000
    19 O19     33.3776   3.6233  12.7128   O.2       1 RES1   0.0000
    20 C20     32.5203   7.2983  12.2199   C.2       1 RES1   0.0000
    21 C21     33.1078   8.4946  11.8661   C.2       1 RES1   0.0000
    22 N22     33.4198  11.4243  12.3533   N.2       1 RES1   0.0000
    23 N23     30.8218  13.9495  12.8554   N.pl3     1 RES1   0.0000
    24 C24     30.8546  14.8988  11.7356   C.3       1 RES1   0.0000
    25 C25     31.2407  14.2033  10.4376   C.3       1 RES1   0.0000
    26 C26     31.6999  16.1316  12.0431   C.3       1 RES1   0.0000
@<TRIPOS>BOND
     1     1     2    1
     2     2     3    2
     3     3     4    1
     4     4     5    2
     5     5     6    1
     6     6     7    2
     7     7     8    1
     8     8     9    2
     9     9    10    1
    10    10    11    1
    11    11    12    1
    12    12    13    2
    13    13    14    1
    14    14    15    2
    15    15    16    1
    16    16    17    1
    17    16    18    2
    18    16    19    2
    19    15    20    1
    20    20    21    2
    21    10    22    2
    22     5    23    1
    23    23    24    1
    24    24    25    1
    25    24    26    1
    26    23     2    1
    27    22     6    1
    28    21    12    1
@<TRIPOS>SUBSTRUCTURE
     1 RES1        1 GROUP             0 ****  ****    0  
@<TRIPOS>MOLECULE
ligand_73
    26    28     1     0     0
SMALL
NO_CHARGES
****
Generated from the CSD

@<TRIPOS>ATOM
     1 C1      28.6035  14.6952  13.8548   C.3       1 RES1   0.0000
     2 C2      29.8191  13.8429  13.8213   C.2       1 RES1   0.0000
     3 N3      30.0867  12.8880  14.7019   N.2       1 RES1   0.0000
     4 C4      31.2946  12.3620  14.3217   C.2       1 RES1   0.0000
     5 C5      31.7850  12.9850  13.2080   C.2       1 RES1   0.0000
     6 C6      33.0450  12.7100  12.5110   C.2       1 RES1   0.0000
     7 C7      33.8008  13.7406  11.9635   C.2       1 RES1   0.0000
     8 C8      34.9645  13.3969  11.3042   C.2       1 RES1   0.0000
     9 N9      35.3700  12.1333  11.1553   N.2       1 RES1   0.0000
    10 C10     34.5781  11.1756  11.7013   C.2       1 RES1   0.0000
    11 N11     35.0292   9.8962  11.5107   N.2       1 RES1   0.0000
    12 C12     36.1929   9.3943  10.8787   C.2       1 RES1   0.0000
    13 C13     36.2195   8.2362  10.0888   C.2       1 RES1   0.0000
    14 C14     37.3984   7.8036   9.5103   C.2       1 RES1   0.0000
    15 C15     38.5658   8.5188   9.7246   C.2       1 RES1   0.0000
    16 S16     40.0850   7.9837   8.9953   S.o2      1 RES1   0.0000
    17 C17     40.0316   8.6003   7.3561   C.3       1 RES1   0.0000
    18 O18     41.1452   8.6431   9.6922   O.2       1 RES1   0.0000
    19 O19     40.0981   6.5514   8.9338   O.2       1 RES1   0.0000
    20 C20     38.5661   9.6519  10.5222   C.2       1 RES1   0.0000
    21 C21     37.3888  10.0910  11.0903   C.2       1 RES1   0.0000
    22 N22     33.4198  11.4243  12.3533   N.2       1 RES1   0.0000
    23 N23     30.8216  13.9492  12.8552   N.pl3     1 RES1   0.0000
    24 C24     30.8542  14.8982  11.7351   C.3       1 RES1   0.0000
    25 C25     31.2394  14.2022  10.4371   C.3       1 RES1   0.0000
    26 C26     31.7001  16.1308  12.0419   C.3       1 RES1   0.0000
@<TRIPOS>BOND
     1     1     2    1
     2     2     3    2
     3     3     4    1
     4     4     5    2
     5     5     6    1
     6     6     7    2
     7     7     8    1
     8     8     9    2
     9     9    10    1
    10    10    11    1
    11    11    12    1
    12    12    13    2
    13    13    14    1
    14    14    15    2
    15    15    16    1
    16    16    17    1
    17    16    18    2
    18    16    19    2
    19    15    20    1
    20    20    21    2
    21    10    22    2
    22     5    23    1
    23    23    24    1
    24    24    25    1
    25    24    26    1
    26    23     2    1
    27    22     6    1
    28    21    12    1
@<TRIPOS>SUBSTRUCTURE
     1 RES1        1 GROUP             0 ****  ****    0  
@<TRIPOS>MOLECULE
ligand_74
    26    28     1     0     0
SMALL
NO_CHARGES
****
Generated from the CSD

@<TRIPOS>ATOM
     1 C1      28.6023  14.6935  13.8532   C.3       1 RES1   0.0000
     2 C2      29.8186  13.8422  13.8206   C.2       1 RES1   0.0000
     3 N3      30.0872  12.8888  14.7026   N.2       1 RES1   0.0000
     4 C4      31.2955  12.3633  14.3228   C.2       1 RES1   0.0000
     5 C5      31.7850  12.9850  13.2080   C.2       1 RES1   0.0000
     6 C6      33.0450  12.7100  12.5110   C.2       1 RES1   0.0000
     7 C7      33.8008  13.7406  11.9635   C.2       1 RES1   0.0000
     8 C8      34.9645  13.3969  11.3042   C.2       1 RES1   0.0000
     9 N9      35.3700  12.1333  11.1553   N.2       1 RES1   0.0000
    10 C10     34.5781  11.1756  11.7013   C.2       1 RES1   0.0000
    11 N11     35.0292   9.8962  11.5107   N.2       1 RES1   0.0000
    12 C12     34.5037   8.6444  11.9137   C.2       1 RES1   0.0000
    13 C13     33.8264   8.4301  13.1225   C.2       1 RES1   0.0000
    14 C14     33.3484   7.1750  13.4505   C.2       1 RES1   0.0000
    15 C15     33.5522   6.1181  12.5777   C.2       1 RES1   0.0000
    16 S16     32.9502   4.5042  12.9770   S.o2      1 RES1   0.0000
    17 C17     31.2603   4.5342  12.5148   C.3       1 RES1   0.0000
    18 O18     33.6339   3.5756  12.1316   O.2       1 RES1   0.0000
    19 O19     33.0220   4.3134  14.3961   O.2       1 RES1   0.0000
    20 C20     34.2407   6.3031  11.3896   C.2       1 RES1   0.0000
    21 C21     34.7079   7.5569  11.0558   C.2       1 RES1   0.0000
    22 N22     33.4198  11.4243  12.3533   N.2       1 RES1   0.0000
    23 N23     30.8207  13.9479  12.8540   N.pl3     1 RES1   0.0000
    24 C24     30.8521  14.8951  11.7324   C.3       1 RES1   0.0000
    25 C25     31.2378  14.1976  10.4355   C.3       1 RES1   0.0000
    26 C26     31.6967  16.1291  12.0372   C.3       1 RES1   0.0000
@<TRIPOS>BOND
     1     1     2    1
     2     2     3    2
     3     3     4    1
     4     4     5    2
     5     5     6    1
     6     6     7    2
     7     7     8    1
     8     8     9    2
     9     9    10    1
    10    10    11    1
    11    11    12    1
    12    12    13    2
    13    13    14    1
    14    14    15    2
    15    15    16    1
    16    16    17    1
    17    16    18    2
    18    16    19    2
    19    15    20    1
    20    20    21    2
    21    10    22    2
    22     5    23    1
    23    23    24    1
    24    24    25    1
    25    24    26    1
    26    23     2    1
    27    22     6    1
    28    21    12    1
@<TRIPOS>SUBSTRUCTURE
     1 RES1        1 GROUP             0 ****  ****    0  
@<TRIPOS>MOLECULE
ligand_75
    26    28     1     0     0
SMALL
NO_CHARGES
****
Generated from the CSD

@<TRIPOS>ATOM
     1 C1      28.7827  14.8974  14.0989   C.3       1 RES1   0.0000
     2 C2      29.8950  13.9292  13.9244   C.2       1 RES1   0.0000
     3 N3      30.0017  12.7861  14.5885   N.2       1 RES1   0.0000
     4 C4      31.1633  12.2078  14.1453   C.2       1 RES1   0.0000
     5 C5      31.7850  12.9850  13.2080   C.2       1 RES1   0.0000
     6 C6      33.0450  12.7100  12.5110   C.2       1 RES1   0.0000
     7 C7      33.1764  12.9478  11.1475   C.2       1 RES1   0.0000
     8 C8      34.3887  12.6424  10.5610   C.2       1 RES1   0.0000
     9 N9      35.4117  12.1146  11.2379   N.2       1 RES1   0.0000
    10 C10     35.2113  11.8945  12.5623   C.2       1 RES1   0.0000
    11 N11     36.2841  11.3404  13.2094   N.2       1 RES1   0.0000
    12 C12     37.5784  10.9903  12.7536   C.2       1 RES1   0.0000
    13 C13     38.2709   9.8421  13.1634   C.2       1 RES1   0.0000
    14 C14     39.5374   9.5716  12.6795   C.2       1 RES1   0.0000
    15 C15     40.1295  10.4525  11.7886   C.2       1 RES1   0.0000
    16 S16     41.7488  10.1271  11.1574   S.o2      1 RES1   0.0000
    17 C17     42.8167  11.0920  12.1568   C.3       1 RES1   0.0000
    18 O18     42.0284   8.7459  11.3993   O.2       1 RES1   0.0000
    19 O19     41.8354  10.6136   9.8116   O.2       1 RES1   0.0000
    20 C20     39.4726  11.6056  11.3901   C.2       1 RES1   0.0000
    21 C21     38.2047  11.8707  11.8630   C.2       1 RES1   0.0000
    22 N22     34.0543  12.1550  13.2121   N.2       1 RES1   0.0000
    23 N23     30.9581  14.1117  13.0378   N.pl3     1 RES1   0.0000
    24 C24     31.1625  15.2624  12.1487   C.3       1 RES1   0.0000
    25 C25     30.6477  14.9705  10.7461   C.3       1 RES1   0.0000
    26 C26     32.6009  15.7715  12.1781   C.3       1 RES1   0.0000
@<TRIPOS>BOND
     1     1     2    1
     2     2     3    2
     3     3     4    1
     4     4     5    2
     5     5     6    1
     6     6     7    2
     7     7     8    1
     8     8     9    2
     9     9    10    1
    10    10    11    1
    11    11    12    1
    12    12    13    2
    13    13    14    1
    14    14    15    2
    15    15    16    1
    16    16    17    1
    17    16    18    2
    18    16    19    2
    19    15    20    1
    20    20    21    2
    21    10    22    2
    22     5    23    1
    23    23    24    1
    24    24    25    1
    25    24    26    1
    26    23     2    1
    27    22     6    1
    28    21    12    1
@<TRIPOS>SUBSTRUCTURE
     1 RES1        1 GROUP             0 ****  ****    0  
@<TRIPOS>MOLECULE
ligand_76
    26    28     1     0     0
SMALL
NO_CHARGES
****
Generated from the CSD

@<TRIPOS>ATOM
     1 C1      28.7828  14.8975  14.0990   C.3       1 RES1   0.0000
     2 C2      29.8951  13.9292  13.9245   C.2       1 RES1   0.0000
     3 N3      30.0017  12.7861  14.5884   N.2       1 RES1   0.0000
     4 C4      31.1633  12.2077  14.1452   C.2       1 RES1   0.0000
     5 C5      31.7850  12.9850  13.2080   C.2       1 RES1   0.0000
     6 C6      33.0450  12.7100  12.5110   C.2       1 RES1   0.0000
     7 C7      33.1764  12.9478  11.1475   C.2       1 RES1   0.0000
     8 C8      34.3887  12.6424  10.5610   C.2       1 RES1   0.0000
     9 N9      35.4117  12.1146  11.2379   N.2       1 RES1   0.0000
    10 C10     35.2113  11.8945  12.5623   C.2       1 RES1   0.0000
    11 N11     36.2841  11.3404  13.2094   N.2       1 RES1   0.0000
    12 C12     36.4720  10.9575  14.5598   C.2       1 RES1   0.0000
    13 C13     37.6856  11.0855  15.2502   C.2       1 RES1   0.0000
    14 C14     37.7938  10.6810  16.5679   C.2       1 RES1   0.0000
    15 C15     36.6921  10.1339  17.2059   C.2       1 RES1   0.0000
    16 S16     36.8078   9.6090  18.8904   S.o2      1 RES1   0.0000
    17 C17     36.5976  11.0748  19.8272   C.3       1 RES1   0.0000
    18 O18     35.6952   8.7472  19.1433   O.2       1 RES1   0.0000
    19 O19     38.1278   9.1067  19.1367   O.2       1 RES1   0.0000
    20 C20     35.4905   9.9755  16.5342   C.2       1 RES1   0.0000
    21 C21     35.3780  10.3893  15.2235   C.2       1 RES1   0.0000
    22 N22     34.0543  12.1550  13.2121   N.2       1 RES1   0.0000
    23 N23     30.9582  14.1118  13.0379   N.pl3     1 RES1   0.0000
    24 C24     31.1627  15.2626  12.1489   C.3       1 RES1   0.0000
    25 C25     30.6458  14.9717  10.7469   C.3       1 RES1   0.0000
    26 C26     32.6016  15.7701  12.1767   C.3       1 RES1   0.0000
@<TRIPOS>BOND
     1     1     2    1
     2     2     3    2
     3     3     4    1
     4     4     5    2
     5     5     6    1
     6     6     7    2
     7     7     8    1
     8     8     9    2
     9     9    10    1
    10    10    11    1
    11    11    12    1
    12    12    13    2
    13    13    14    1
    14    14    15    2
    15    15    16    1
    16    16    17    1
    17    16    18    2
    18    16    19    2
    19    15    20    1
    20    20    21    2
    21    10    22    2
    22     5    23    1
    23    23    24    1
    24    24    25    1
    25    24    26    1
    26    23     2    1
    27    22     6    1
    28    21    12    1
@<TRIPOS>SUBSTRUCTURE
     1 RES1        1 GROUP             0 ****  ****    0  
@<TRIPOS>MOLECULE
ligand_77
    26    28     1     0     0
SMALL
NO_CHARGES
****
Generated from the CSD

@<TRIPOS>ATOM
     1 C1      28.7827  14.8974  14.0989   C.3       1 RES1   0.0000
     2 C2      29.8950  13.9292  13.9244   C.2       1 RES1   0.0000
     3 N3      30.0017  12.7861  14.5885   N.2       1 RES1   0.0000
     4 C4      31.1633  12.2078  14.1453   C.2       1 RES1   0.0000
     5 C5      31.7850  12.9850  13.2080   C.2       1 RES1   0.0000
     6 C6      33.0450  12.7100  12.5110   C.2       1 RES1   0.0000
     7 C7      33.1764  12.9478  11.1475   C.2       1 RES1   0.0000
     8 C8      34.3887  12.6424  10.5610   C.2       1 RES1   0.0000
     9 N9      35.4117  12.1146  11.2379   N.2       1 RES1   0.0000
    10 C10     35.2113  11.8945  12.5623   C.2       1 RES1   0.0000
    11 N11     36.2841  11.3404  13.2094   N.2       1 RES1   0.0000
    12 C12     37.5784  10.9903  12.7536   C.2       1 RES1   0.0000
    13 C13     38.2709   9.8421  13.1634   C.2       1 RES1   0.0000
    14 C14     39.5374   9.5716  12.6795   C.2       1 RES1   0.0000
    15 C15     40.1295  10.4525  11.7886   C.2       1 RES1   0.0000
    16 S16     41.7488  10.1271  11.1574   S.o2      1 RES1   0.0000
    17 C17     41.4934   8.9988   9.8413   C.3       1 RES1   0.0000
    18 O18     42.2457  11.3522  10.6128   O.2       1 RES1   0.0000
    19 O19     42.5234   9.4675  12.1675   O.2       1 RES1   0.0000
    20 C20     39.4726  11.6056  11.3901   C.2       1 RES1   0.0000
    21 C21     38.2047  11.8707  11.8630   C.2       1 RES1   0.0000
    22 N22     34.0543  12.1550  13.2121   N.2       1 RES1   0.0000
    23 N23     30.9581  14.1117  13.0378   N.pl3     1 RES1   0.0000
    24 C24     31.1625  15.2624  12.1487   C.3       1 RES1   0.0000
    25 C25     30.6477  14.9705  10.7461   C.3       1 RES1   0.0000
    26 C26     32.6009  15.7715  12.1781   C.3       1 RES1   0.0000
@<TRIPOS>BOND
     1     1     2    1
     2     2     3    2
     3     3     4    1
     4     4     5    2
     5     5     6    1
     6     6     7    2
     7     7     8    1
     8     8     9    2
     9     9    10    1
    10    10    11    1
    11    11    12    1
    12    12    13    2
    13    13    14    1
    14    14    15    2
    15    15    16    1
    16    16    17    1
    17    16    18    2
    18    16    19    2
    19    15    20    1
    20    20    21    2
    21    10    22    2
    22     5    23    1
    23    23    24    1
    24    24    25    1
    25    24    26    1
    26    23     2    1
    27    22     6    1
    28    21    12    1
@<TRIPOS>SUBSTRUCTURE
     1 RES1        1 GROUP             0 ****  ****    0  
@<TRIPOS>MOLECULE
ligand_78
    26    28     1     0     0
SMALL
NO_CHARGES
****
Generated from the CSD

@<TRIPOS>ATOM
     1 C1      28.7830  14.8978  14.0995   C.3       1 RES1   0.0000
     2 C2      29.8952  13.9294  13.9247   C.2       1 RES1   0.0000
     3 N3      30.0015  12.7860  14.5882   N.2       1 RES1   0.0000
     4 C4      31.1631  12.2075  14.1449   C.2       1 RES1   0.0000
     5 C5      31.7850  12.9850  13.2080   C.2       1 RES1   0.0000
     6 C6      33.0450  12.7100  12.5110   C.2       1 RES1   0.0000
     7 C7      33.1764  12.9478  11.1475   C.2       1 RES1   0.0000
     8 C8      34.3887  12.6424  10.5610   C.2       1 RES1   0.0000
     9 N9      35.4117  12.1146  11.2379   N.2       1 RES1   0.0000
    10 C10     35.2113  11.8945  12.5623   C.2       1 RES1   0.0000
    11 N11     36.2841  11.3404  13.2094   N.2       1 RES1   0.0000
    12 C12     36.4748  10.9649  14.5615   C.2       1 RES1   0.0000
    13 C13     35.9303  11.6570  15.6525   C.2       1 RES1   0.0000
    14 C14     36.1682  11.2333  16.9468   C.2       1 RES1   0.0000
    15 C15     36.9626  10.1189  17.1644   C.2       1 RES1   0.0000
    16 S16     37.2809   9.5595  18.8113   S.o2      1 RES1   0.0000
    17 C17     35.8699   8.6126  19.2386   C.3       1 RES1   0.0000
    18 O18     38.4109   8.6855  18.7511   O.2       1 RES1   0.0000
    19 O19     37.3419  10.6916  19.6888   O.2       1 RES1   0.0000
    20 C20     37.5308   9.4354  16.1014   C.2       1 RES1   0.0000
    21 C21     37.2848   9.8501  14.8094   C.2       1 RES1   0.0000
    22 N22     34.0543  12.1550  13.2121   N.2       1 RES1   0.0000
    23 N23     30.9584  14.1120  13.0382   N.pl3     1 RES1   0.0000
    24 C24     31.1632  15.2630  12.1496   C.3       1 RES1   0.0000
    25 C25     30.6486  14.9719  10.7468   C.3       1 RES1   0.0000
    26 C26     32.6016  15.7718  12.1795   C.3       1 RES1   0.0000
@<TRIPOS>BOND
     1     1     2    1
     2     2     3    2
     3     3     4    1
     4     4     5    2
     5     5     6    1
     6     6     7    2
     7     7     8    1
     8     8     9    2
     9     9    10    1
    10    10    11    1
    11    11    12    1
    12    12    13    2
    13    13    14    1
    14    14    15    2
    15    15    16    1
    16    16    17    1
    17    16    18    2
    18    16    19    2
    19    15    20    1
    20    20    21    2
    21    10    22    2
    22     5    23    1
    23    23    24    1
    24    24    25    1
    25    24    26    1
    26    23     2    1
    27    22     6    1
    28    21    12    1
@<TRIPOS>SUBSTRUCTURE
     1 RES1        1 GROUP             0 ****  ****    0  
@<TRIPOS>MOLECULE
ligand_79
    26    28     1     0     0
SMALL
NO_CHARGES
****
Generated from the CSD

@<TRIPOS>ATOM
     1 C1      28.6741  14.7854  13.9468   C.3       1 RES1   0.0000
     2 C2      29.8490  13.8814  13.8601   C.2       1 RES1   0.0000
     3 N3      30.0533  12.8429  14.6594   N.2       1 RES1   0.0000
     4 C4      31.2430  12.2936  14.2555   C.2       1 RES1   0.0000
     5 C5      31.7850  12.9850  13.2080   C.2       1 RES1   0.0000
     6 C6      33.0450  12.7100  12.5110   C.2       1 RES1   0.0000
     7 C7      33.4902  11.4063  12.3230   C.2       1 RES1   0.0000
     8 C8      34.6977  11.2321  11.6759   C.2       1 RES1   0.0000
     9 N9      35.4502  12.2513  11.2537   N.2       1 RES1   0.0000
    10 C10     34.9636  13.4978  11.4820   C.2       1 RES1   0.0000
    11 N11     35.7772  14.5087  11.0429   N.2       1 RES1   0.0000
    12 C12     35.6353  15.9170  11.0901   C.2       1 RES1   0.0000
    13 C13     34.9183  16.6007  12.0821   C.2       1 RES1   0.0000
    14 C14     34.8175  17.9793  12.0563   C.2       1 RES1   0.0000
    15 C15     35.4238  18.6884  11.0316   C.2       1 RES1   0.0000
    16 S16     35.3072  20.4519  10.9781   S.o2      1 RES1   0.0000
    17 C17     36.9378  21.0137  11.2876   C.3       1 RES1   0.0000
    18 O18     34.9506  20.8128   9.6413   O.2       1 RES1   0.0000
    19 O19     34.4688  20.9004  12.0510   O.2       1 RES1   0.0000
    20 C20     36.1160  18.0303  10.0277   C.2       1 RES1   0.0000
    21 C21     36.2272  16.6561  10.0587   C.2       1 RES1   0.0000
    22 N22     33.7977  13.7569  12.1161   N.2       1 RES1   0.0000
    23 N23     30.8752  14.0212  12.9237   N.pl3     1 RES1   0.0000
    24 C24     30.9754  15.0597  11.8903   C.3       1 RES1   0.0000
    25 C25     31.1499  16.4381  12.5125   C.3       1 RES1   0.0000
    26 C26     29.8347  14.9856  10.8793   C.3       1 RES1   0.0000
@<TRIPOS>BOND
     1     1     2    1
     2     2     3    2
     3     3     4    1
     4     4     5    2
     5     5     6    1
     6     6     7    2
     7     7     8    1
     8     8     9    2
     9     9    10    1
    10    10    11    1
    11    11    12    1
    12    12    13    2
    13    13    14    1
    14    14    15    2
    15    15    16    1
    16    16    17    1
    17    16    18    2
    18    16    19    2
    19    15    20    1
    20    20    21    2
    21    10    22    2
    22     5    23    1
    23    23    24    1
    24    24    25    1
    25    24    26    1
    26    23     2    1
    27    22     6    1
    28    21    12    1
@<TRIPOS>SUBSTRUCTURE
     1 RES1        1 GROUP             0 ****  ****    0  
@<TRIPOS>MOLECULE
ligand_80
    26    28     1     0     0
SMALL
NO_CHARGES
****
Generated from the CSD

@<TRIPOS>ATOM
     1 C1      28.6740  14.7853  13.9467   C.3       1 RES1   0.0000
     2 C2      29.8490  13.8813  13.8601   C.2       1 RES1   0.0000
     3 N3      30.0533  12.8429  14.6594   N.2       1 RES1   0.0000
     4 C4      31.2430  12.2936  14.2555   C.2       1 RES1   0.0000
     5 C5      31.7850  12.9850  13.2080   C.2       1 RES1   0.0000
     6 C6      33.0450  12.7100  12.5110   C.2       1 RES1   0.0000
     7 C7      33.4902  11.4063  12.3230   C.2       1 RES1   0.0000
     8 C8      34.6977  11.2321  11.6759   C.2       1 RES1   0.0000
     9 N9      35.4502  12.2513  11.2537   N.2       1 RES1   0.0000
    10 C10     34.9636  13.4978  11.4820   C.2       1 RES1   0.0000
    11 N11     35.7772  14.5087  11.0429   N.2       1 RES1   0.0000
    12 C12     37.0255  14.4875  10.3745   C.2       1 RES1   0.0000
    13 C13     37.4230  13.4781   9.4862   C.2       1 RES1   0.0000
    14 C14     38.6634  13.5224   8.8773   C.2       1 RES1   0.0000
    15 C15     39.5242  14.5713   9.1587   C.2       1 RES1   0.0000
    16 S16     41.1157  14.6480   8.3920   S.o2      1 RES1   0.0000
    17 C17     41.0250  16.0302   7.3190   C.3       1 RES1   0.0000
    18 O18     42.0678  14.9347   9.4195   O.2       1 RES1   0.0000
    19 O19     41.3095  13.4737   7.5927   O.2       1 RES1   0.0000
    20 C20     39.1607  15.5658  10.0526   C.2       1 RES1   0.0000
    21 C21     37.9193  15.5289  10.6518   C.2       1 RES1   0.0000
    22 N22     33.7977  13.7569  12.1161   N.2       1 RES1   0.0000
    23 N23     30.8752  14.0212  12.9236   N.pl3     1 RES1   0.0000
    24 C24     30.9753  15.0596  11.8902   C.3       1 RES1   0.0000
    25 C25     31.1496  16.4380  12.5123   C.3       1 RES1   0.0000
    26 C26     29.8347  14.9853  10.8791   C.3       1 RES1   0.0000
@<TRIPOS>BOND
     1     1     2    1
     2     2     3    2
     3     3     4    1
     4     4     5    2
     5     5     6    1
     6     6     7    2
     7     7     8    1
     8     8     9    2
     9     9    10    1
    10    10    11    1
    11    11    12    1
    12    12    13    2
    13    13    14    1
    14    14    15    2
    15    15    16    1
    16    16    17    1
    17    16    18    2
    18    16    19    2
    19    15    20    1
    20    20    21    2
    21    10    22    2
    22     5    23    1
    23    23    24    1
    24    24    25    1
    25    24    26    1
    26    23     2    1
    27    22     6    1
    28    21    12    1
@<TRIPOS>SUBSTRUCTURE
     1 RES1        1 GROUP             0 ****  ****    0  
@<TRIPOS>MOLECULE
ligand_81
    26    28     1     0     0
SMALL
NO_CHARGES
****
Generated from the CSD

@<TRIPOS>ATOM
     1 C1      28.7100  14.8260  13.9958   C.3       1 RES1   0.0000
     2 C2      29.8643  13.8987  13.8808   C.2       1 RES1   0.0000
     3 N3      30.0362  12.8225  14.6366   N.2       1 RES1   0.0000
     4 C4      31.2166  12.2626  14.2200   C.2       1 RES1   0.0000
     5 C5      31.7850  12.9850  13.2080   C.2       1 RES1   0.0000
     6 C6      33.0450  12.7100  12.5110   C.2       1 RES1   0.0000
     7 C7      34.1641  12.2619  13.2037   C.2       1 RES1   0.0000
     8 C8      35.3191  12.0464  12.4779   C.2       1 RES1   0.0000
     9 N9      35.4053  12.2714  11.1645   N.2       1 RES1   0.0000
    10 C10     34.2803  12.7219  10.5528   C.2       1 RES1   0.0000
    11 N11     34.4228  12.9501   9.2096   N.2       1 RES1   0.0000
    12 C12     35.5273  12.7808   8.3395   C.2       1 RES1   0.0000
    13 C13     36.5141  11.7988   8.5058   C.2       1 RES1   0.0000
    14 C14     37.5689  11.7009   7.6174   C.2       1 RES1   0.0000
    15 C15     37.6541  12.5915   6.5591   C.2       1 RES1   0.0000
    16 S16     38.9948  12.4854   5.4112   S.o2      1 RES1   0.0000
    17 C17     38.2530  11.9724   3.9090   C.3       1 RES1   0.0000
    18 O18     39.5068  13.8086   5.2340   O.2       1 RES1   0.0000
    19 O19     39.8984  11.4572   5.8374   O.2       1 RES1   0.0000
    20 C20     36.7030  13.5851   6.3910   C.2       1 RES1   0.0000
    21 C21     35.6441  13.6765   7.2697   C.2       1 RES1   0.0000
    22 N22     33.1128  12.9683  11.1892   N.2       1 RES1   0.0000
    23 N23     30.9027  14.0538  12.9604   N.pl3     1 RES1   0.0000
    24 C24     31.0373  15.1328  11.9734   C.3       1 RES1   0.0000
    25 C25     30.8477  14.6079  10.5571   C.3       1 RES1   0.0000
    26 C26     32.3217  15.9352  12.1610   C.3       1 RES1   0.0000
@<TRIPOS>BOND
     1     1     2    1
     2     2     3    2
     3     3     4    1
     4     4     5    2
     5     5     6    1
     6     6     7    2
     7     7     8    1
     8     8     9    2
     9     9    10    1
    10    10    11    1
    11    11    12    1
    12    12    13    2
    13    13    14    1
    14    14    15    2
    15    15    16    1
    16    16    17    1
    17    16    18    2
    18    16    19    2
    19    15    20    1
    20    20    21    2
    21    10    22    2
    22     5    23    1
    23    23    24    1
    24    24    25    1
    25    24    26    1
    26    23     2    1
    27    22     6    1
    28    21    12    1
@<TRIPOS>SUBSTRUCTURE
     1 RES1        1 GROUP             0 ****  ****    0  
@<TRIPOS>MOLECULE
ligand_82
    26    28     1     0     0
SMALL
NO_CHARGES
****
Generated from the CSD

@<TRIPOS>ATOM
     1 C1      28.6740  14.7853  13.9467   C.3       1 RES1   0.0000
     2 C2      29.8490  13.8813  13.8601   C.2       1 RES1   0.0000
     3 N3      30.0533  12.8429  14.6594   N.2       1 RES1   0.0000
     4 C4      31.2430  12.2936  14.2555   C.2       1 RES1   0.0000
     5 C5      31.7850  12.9850  13.2080   C.2       1 RES1   0.0000
     6 C6      33.0450  12.7100  12.5110   C.2       1 RES1   0.0000
     7 C7      33.4902  11.4063  12.3230   C.2       1 RES1   0.0000
     8 C8      34.6977  11.2321  11.6759   C.2       1 RES1   0.0000
     9 N9      35.4502  12.2513  11.2537   N.2       1 RES1   0.0000
    10 C10     34.9636  13.4978  11.4820   C.2       1 RES1   0.0000
    11 N11     35.7772  14.5087  11.0429   N.2       1 RES1   0.0000
    12 C12     37.0255  14.4875  10.3745   C.2       1 RES1   0.0000
    13 C13     37.4230  13.4781   9.4862   C.2       1 RES1   0.0000
    14 C14     38.6634  13.5224   8.8773   C.2       1 RES1   0.0000
    15 C15     39.5242  14.5713   9.1587   C.2       1 RES1   0.0000
    16 S16     41.1157  14.6480   8.3920   S.o2      1 RES1   0.0000
    17 C17     42.0048  13.3042   9.0804   C.3       1 RES1   0.0000
    18 O18     40.9266  14.3980   6.9970   O.2       1 RES1   0.0000
    19 O19     41.7681  15.8630   8.7836   O.2       1 RES1   0.0000
    20 C20     39.1607  15.5658  10.0526   C.2       1 RES1   0.0000
    21 C21     37.9193  15.5289  10.6518   C.2       1 RES1   0.0000
    22 N22     33.7977  13.7569  12.1161   N.2       1 RES1   0.0000
    23 N23     30.8752  14.0212  12.9236   N.pl3     1 RES1   0.0000
    24 C24     30.9753  15.0596  11.8902   C.3       1 RES1   0.0000
    25 C25     31.1496  16.4380  12.5123   C.3       1 RES1   0.0000
    26 C26     29.8347  14.9853  10.8791   C.3       1 RES1   0.0000
@<TRIPOS>BOND
     1     1     2    1
     2     2     3    2
     3     3     4    1
     4     4     5    2
     5     5     6    1
     6     6     7    2
     7     7     8    1
     8     8     9    2
     9     9    10    1
    10    10    11    1
    11    11    12    1
    12    12    13    2
    13    13    14    1
    14    14    15    2
    15    15    16    1
    16    16    17    1
    17    16    18    2
    18    16    19    2
    19    15    20    1
    20    20    21    2
    21    10    22    2
    22     5    23    1
    23    23    24    1
    24    24    25    1
    25    24    26    1
    26    23     2    1
    27    22     6    1
    28    21    12    1
@<TRIPOS>SUBSTRUCTURE
     1 RES1        1 GROUP             0 ****  ****    0  
@<TRIPOS>MOLECULE
ligand_83
    26    28     1     0     0
SMALL
NO_CHARGES
****
Generated from the CSD

@<TRIPOS>ATOM
     1 C1      28.7100  14.8260  13.9958   C.3       1 RES1   0.0000
     2 C2      29.8643  13.8987  13.8808   C.2       1 RES1   0.0000
     3 N3      30.0362  12.8225  14.6366   N.2       1 RES1   0.0000
     4 C4      31.2166  12.2626  14.2200   C.2       1 RES1   0.0000
     5 C5      31.7850  12.9850  13.2080   C.2       1 RES1   0.0000
     6 C6      33.0450  12.7100  12.5110   C.2       1 RES1   0.0000
     7 C7      34.1641  12.2619  13.2037   C.2       1 RES1   0.0000
     8 C8      35.3191  12.0464  12.4779   C.2       1 RES1   0.0000
     9 N9      35.4053  12.2714  11.1645   N.2       1 RES1   0.0000
    10 C10     34.2803  12.7219  10.5528   C.2       1 RES1   0.0000
    11 N11     34.4228  12.9501   9.2096   N.2       1 RES1   0.0000
    12 C12     35.5273  12.7808   8.3395   C.2       1 RES1   0.0000
    13 C13     36.5141  11.7988   8.5058   C.2       1 RES1   0.0000
    14 C14     37.5689  11.7009   7.6174   C.2       1 RES1   0.0000
    15 C15     37.6541  12.5915   6.5591   C.2       1 RES1   0.0000
    16 S16     38.9948  12.4854   5.4112   S.o2      1 RES1   0.0000
    17 C17     40.4093  12.9452   6.3376   C.3       1 RES1   0.0000
    18 O18     39.1256  11.1114   5.0380   O.2       1 RES1   0.0000
    19 O19     38.8041  13.4573   4.3746   O.2       1 RES1   0.0000
    20 C20     36.7030  13.5851   6.3910   C.2       1 RES1   0.0000
    21 C21     35.6441  13.6765   7.2697   C.2       1 RES1   0.0000
    22 N22     33.1128  12.9683  11.1892   N.2       1 RES1   0.0000
    23 N23     30.9027  14.0538  12.9604   N.pl3     1 RES1   0.0000
    24 C24     31.0373  15.1328  11.9734   C.3       1 RES1   0.0000
    25 C25     30.8477  14.6079  10.5571   C.3       1 RES1   0.0000
    26 C26     32.3217  15.9352  12.1610   C.3       1 RES1   0.0000
@<TRIPOS>BOND
     1     1     2    1
     2     2     3    2
     3     3     4    1
     4     4     5    2
     5     5     6    1
     6     6     7    2
     7     7     8    1
     8     8     9    2
     9     9    10    1
    10    10    11    1
    11    11    12    1
    12    12    13    2
    13    13    14    1
    14    14    15    2
    15    15    16    1
    16    16    17    1
    17    16    18    2
    18    16    19    2
    19    15    20    1
    20    20    21    2
    21    10    22    2
    22     5    23    1
    23    23    24    1
    24    24    25    1
    25    24    26    1
    26    23     2    1
    27    22     6    1
    28    21    12    1
@<TRIPOS>SUBSTRUCTURE
     1 RES1        1 GROUP             0 ****  ****    0  
@<TRIPOS>MOLECULE
ligand_84
    26    28     1     0     0
SMALL
NO_CHARGES
****
Generated from the CSD

@<TRIPOS>ATOM
     1 C1      28.6793  14.7915  13.9539   C.3       1 RES1   0.0000
     2 C2      29.8512  13.8840  13.8631   C.2       1 RES1   0.0000
     3 N3      30.0508  12.8398  14.6561   N.2       1 RES1   0.0000
     4 C4      31.2392  12.2889  14.2503   C.2       1 RES1   0.0000
     5 C5      31.7850  12.9850  13.2080   C.2       1 RES1   0.0000
     6 C6      33.0450  12.7100  12.5110   C.2       1 RES1   0.0000
     7 C7      33.8664  11.6591  12.9033   C.2       1 RES1   0.0000
     8 C8      35.0468  11.4793  12.2095   C.2       1 RES1   0.0000
     9 N9      35.4320  12.2773  11.2105   N.2       1 RES1   0.0000
    10 C10     34.5903  13.2923  10.8883   C.2       1 RES1   0.0000
    11 N11     35.0355  14.0900   9.8673   N.2       1 RES1   0.0000
    12 C12     34.6944  15.4117   9.4901   C.2       1 RES1   0.0000
    13 C13     35.0744  16.0046   8.2777   C.2       1 RES1   0.0000
    14 C14     34.7095  17.3052   7.9834   C.2       1 RES1   0.0000
    15 C15     33.9698  18.0308   8.9035   C.2       1 RES1   0.0000
    16 S16     33.4927  19.6960   8.5486   S.o2      1 RES1   0.0000
    17 C17     31.7515  19.6288   8.3643   C.3       1 RES1   0.0000
    18 O18     33.7951  20.4794   9.7058   O.2       1 RES1   0.0000
    19 O19     34.0602  20.0900   7.2924   O.2       1 RES1   0.0000
    20 C20     33.6053  17.4721  10.1180   C.2       1 RES1   0.0000
    21 C21     33.9586  16.1710  10.4079   C.2       1 RES1   0.0000
    22 N22     33.4226  13.5449  11.5217   N.2       1 RES1   0.0000
    23 N23     30.8792  14.0262  12.9290   N.pl3     1 RES1   0.0000
    24 C24     30.9844  15.0708  11.9023   C.3       1 RES1   0.0000
    25 C25     31.1655  16.4443  12.5333   C.3       1 RES1   0.0000
    26 C26     29.8435  15.0086  10.8908   C.3       1 RES1   0.0000
@<TRIPOS>BOND
     1     1     2    1
     2     2     3    2
     3     3     4    1
     4     4     5    2
     5     5     6    1
     6     6     7    2
     7     7     8    1
     8     8     9    2
     9     9    10    1
    10    10    11    1
    11    11    12    1
    12    12    13    2
    13    13    14    1
    14    14    15    2
    15    15    16    1
    16    16    17    1
    17    16    18    2
    18    16    19    2
    19    15    20    1
    20    20    21    2
    21    10    22    2
    22     5    23    1
    23    23    24    1
    24    24    25    1
    25    24    26    1
    26    23     2    1
    27    22     6    1
    28    21    12    1
@<TRIPOS>SUBSTRUCTURE
     1 RES1        1 GROUP             0 ****  ****    0  
@<TRIPOS>MOLECULE
ligand_85
    26    28     1     0     0
SMALL
NO_CHARGES
****
Generated from the CSD

@<TRIPOS>ATOM
     1 C1      29.0219  15.0406  14.4748   C.3       1 RES1   0.0000
     2 C2      29.9965  13.9906  14.0836   C.2       1 RES1   0.0000
     3 N3      29.8871  12.7102  14.4113   N.2       1 RES1   0.0000
     4 C4      30.9869  12.0947  13.8709   C.2       1 RES1   0.0000
     5 C5      31.7850  12.9850  13.2080   C.2       1 RES1   0.0000
     6 C6      33.0450  12.7100  12.5110   C.2       1 RES1   0.0000
     7 C7      33.4257  13.4527  11.3990   C.2       1 RES1   0.0000
     8 C8      34.6167  13.1174  10.7858   C.2       1 RES1   0.0000
     9 N9      35.3893  12.1098  11.1993   N.2       1 RES1   0.0000
    10 C10     34.9516  11.4167  12.2814   C.2       1 RES1   0.0000
    11 N11     35.7710  10.3857  12.6585   N.2       1 RES1   0.0000
    12 C12     36.9547   9.8661  12.0803   C.2       1 RES1   0.0000
    13 C13     38.0345   9.3636  12.8202   C.2       1 RES1   0.0000
    14 C14     39.1621   8.8798  12.1832   C.2       1 RES1   0.0000
    15 C15     39.2265   8.9036  10.7991   C.2       1 RES1   0.0000
    16 S16     40.6591   8.2909   9.9633   S.o2      1 RES1   0.0000
    17 C17     41.6081   9.7195   9.6042   C.3       1 RES1   0.0000
    18 O18     41.3850   7.4891  10.8985   O.2       1 RES1   0.0000
    19 O19     40.2603   7.6956   8.7216   O.2       1 RES1   0.0000
    20 C20     38.1809   9.4190  10.0500   C.2       1 RES1   0.0000
    21 C21     37.0508   9.8910  10.6837   C.2       1 RES1   0.0000
    22 N22     33.7949  11.6721  12.9337   N.2       1 RES1   0.0000
    23 N23     31.1420  14.2323  13.3226   N.pl3     1 RES1   0.0000
    24 C24     31.5773  15.5307  12.7927   C.3       1 RES1   0.0000
    25 C25     31.7564  16.5478  13.9111   C.3       1 RES1   0.0000
    26 C26     30.6861  16.0230  11.6559   C.3       1 RES1   0.0000
@<TRIPOS>BOND
     1     1     2    1
     2     2     3    2
     3     3     4    1
     4     4     5    2
     5     5     6    1
     6     6     7    2
     7     7     8    1
     8     8     9    2
     9     9    10    1
    10    10    11    1
    11    11    12    1
    12    12    13    2
    13    13    14    1
    14    14    15    2
    15    15    16    1
    16    16    17    1
    17    16    18    2
    18    16    19    2
    19    15    20    1
    20    20    21    2
    21    10    22    2
    22     5    23    1
    23    23    24    1
    24    24    25    1
    25    24    26    1
    26    23     2    1
    27    22     6    1
    28    21    12    1
@<TRIPOS>SUBSTRUCTURE
     1 RES1        1 GROUP             0 ****  ****    0  
@<TRIPOS>MOLECULE
ligand_86
    26    28     1     0     0
SMALL
NO_CHARGES
****
Generated from the CSD

@<TRIPOS>ATOM
     1 C1      29.0216  15.0405  14.4743   C.3       1 RES1   0.0000
     2 C2      29.9963  13.9906  14.0833   C.2       1 RES1   0.0000
     3 N3      29.8873  12.7102  14.4115   N.2       1 RES1   0.0000
     4 C4      30.9871  12.0948  13.8713   C.2       1 RES1   0.0000
     5 C5      31.7850  12.9850  13.2080   C.2       1 RES1   0.0000
     6 C6      33.0450  12.7100  12.5110   C.2       1 RES1   0.0000
     7 C7      33.4257  13.4527  11.3990   C.2       1 RES1   0.0000
     8 C8      34.6167  13.1174  10.7858   C.2       1 RES1   0.0000
     9 N9      35.3893  12.1098  11.1993   N.2       1 RES1   0.0000
    10 C10     34.9516  11.4167  12.2814   C.2       1 RES1   0.0000
    11 N11     35.7710  10.3857  12.6585   N.2       1 RES1   0.0000
    12 C12     35.6899   9.4649  13.7314   C.2       1 RES1   0.0000
    13 C13     36.1553   8.1438  13.6686   C.2       1 RES1   0.0000
    14 C14     36.0333   7.3002  14.7572   C.2       1 RES1   0.0000
    15 C15     35.4344   7.7658  15.9169   C.2       1 RES1   0.0000
    16 S16     35.2670   6.7043  17.3211   S.o2      1 RES1   0.0000
    17 C17     36.8248   6.7766  18.1200   C.3       1 RES1   0.0000
    18 O18     34.2891   7.2922  18.1828   O.2       1 RES1   0.0000
    19 O19     35.0575   5.3592  16.8713   O.2       1 RES1   0.0000
    20 C20     34.9454   9.0601  15.9914   C.2       1 RES1   0.0000
    21 C21     35.0769   9.9061  14.9103   C.2       1 RES1   0.0000
    22 N22     33.7949  11.6721  12.9337   N.2       1 RES1   0.0000
    23 N23     31.1418  14.2322  13.3222   N.pl3     1 RES1   0.0000
    24 C24     31.5768  15.5305  12.7918   C.3       1 RES1   0.0000
    25 C25     31.7551  16.5483  13.9098   C.3       1 RES1   0.0000
    26 C26     30.6859  16.0219  11.6544   C.3       1 RES1   0.0000
@<TRIPOS>BOND
     1     1     2    1
     2     2     3    2
     3     3     4    1
     4     4     5    2
     5     5     6    1
     6     6     7    2
     7     7     8    1
     8     8     9    2
     9     9    10    1
    10    10    11    1
    11    11    12    1
    12    12    13    2
    13    13    14    1
    14    14    15    2
    15    15    16    1
    16    16    17    1
    17    16    18    2
    18    16    19    2
    19    15    20    1
    20    20    21    2
    21    10    22    2
    22     5    23    1
    23    23    24    1
    24    24    25    1
    25    24    26    1
    26    23     2    1
    27    22     6    1
    28    21    12    1
@<TRIPOS>SUBSTRUCTURE
     1 RES1        1 GROUP             0 ****  ****    0  
@<TRIPOS>MOLECULE
ligand_87
    26    28     1     0     0
SMALL
NO_CHARGES
****
Generated from the CSD

@<TRIPOS>ATOM
     1 C1      29.0219  15.0406  14.4748   C.3       1 RES1   0.0000
     2 C2      29.9965  13.9906  14.0836   C.2       1 RES1   0.0000
     3 N3      29.8871  12.7102  14.4113   N.2       1 RES1   0.0000
     4 C4      30.9869  12.0947  13.8709   C.2       1 RES1   0.0000
     5 C5      31.7850  12.9850  13.2080   C.2       1 RES1   0.0000
     6 C6      33.0450  12.7100  12.5110   C.2       1 RES1   0.0000
     7 C7      33.4257  13.4527  11.3990   C.2       1 RES1   0.0000
     8 C8      34.6167  13.1174  10.7858   C.2       1 RES1   0.0000
     9 N9      35.3893  12.1098  11.1993   N.2       1 RES1   0.0000
    10 C10     34.9516  11.4167  12.2814   C.2       1 RES1   0.0000
    11 N11     35.7710  10.3857  12.6585   N.2       1 RES1   0.0000
    12 C12     36.9547   9.8661  12.0803   C.2       1 RES1   0.0000
    13 C13     38.0345   9.3636  12.8202   C.2       1 RES1   0.0000
    14 C14     39.1621   8.8798  12.1832   C.2       1 RES1   0.0000
    15 C15     39.2265   8.9036  10.7991   C.2       1 RES1   0.0000
    16 S16     40.6591   8.2909   9.9633   S.o2      1 RES1   0.0000
    17 C17     40.4289   6.5549   9.9030   C.3       1 RES1   0.0000
    18 O18     40.6201   8.7989   8.6273   O.2       1 RES1   0.0000
    19 O19     41.8198   8.5604  10.7605   O.2       1 RES1   0.0000
    20 C20     38.1809   9.4190  10.0500   C.2       1 RES1   0.0000
    21 C21     37.0508   9.8910  10.6837   C.2       1 RES1   0.0000
    22 N22     33.7949  11.6721  12.9337   N.2       1 RES1   0.0000
    23 N23     31.1420  14.2323  13.3226   N.pl3     1 RES1   0.0000
    24 C24     31.5773  15.5307  12.7927   C.3       1 RES1   0.0000
    25 C25     31.7564  16.5478  13.9111   C.3       1 RES1   0.0000
    26 C26     30.6861  16.0230  11.6559   C.3       1 RES1   0.0000
@<TRIPOS>BOND
     1     1     2    1
     2     2     3    2
     3     3     4    1
     4     4     5    2
     5     5     6    1
     6     6     7    2
     7     7     8    1
     8     8     9    2
     9     9    10    1
    10    10    11    1
    11    11    12    1
    12    12    13    2
    13    13    14    1
    14    14    15    2
    15    15    16    1
    16    16    17    1
    17    16    18    2
    18    16    19    2
    19    15    20    1
    20    20    21    2
    21    10    22    2
    22     5    23    1
    23    23    24    1
    24    24    25    1
    25    24    26    1
    26    23     2    1
    27    22     6    1
    28    21    12    1
@<TRIPOS>SUBSTRUCTURE
     1 RES1        1 GROUP             0 ****  ****    0  
@<TRIPOS>MOLECULE
ligand_88
    26    28     1     0     0
SMALL
NO_CHARGES
****
Generated from the CSD

@<TRIPOS>ATOM
     1 C1      28.6741  14.7854  13.9468   C.3       1 RES1   0.0000
     2 C2      29.8490  13.8814  13.8601   C.2       1 RES1   0.0000
     3 N3      30.0533  12.8429  14.6594   N.2       1 RES1   0.0000
     4 C4      31.2430  12.2936  14.2555   C.2       1 RES1   0.0000
     5 C5      31.7850  12.9850  13.2080   C.2       1 RES1   0.0000
     6 C6      33.0450  12.7100  12.5110   C.2       1 RES1   0.0000
     7 C7      33.4902  11.4063  12.3230   C.2       1 RES1   0.0000
     8 C8      34.6977  11.2321  11.6759   C.2       1 RES1   0.0000
     9 N9      35.4502  12.2513  11.2537   N.2       1 RES1   0.0000
    10 C10     34.9636  13.4978  11.4820   C.2       1 RES1   0.0000
    11 N11     35.7772  14.5087  11.0429   N.2       1 RES1   0.0000
    12 C12     35.6353  15.9170  11.0901   C.2       1 RES1   0.0000
    13 C13     36.5421  16.7762  11.7267   C.2       1 RES1   0.0000
    14 C14     36.3310  18.1425  11.7374   C.2       1 RES1   0.0000
    15 C15     35.2047  18.6633  11.1207   C.2       1 RES1   0.0000
    16 S16     34.9141  20.4074  11.1227   S.o2      1 RES1   0.0000
    17 C17     33.7879  20.6680  12.4396   C.3       1 RES1   0.0000
    18 O18     36.1515  21.0430  11.4534   O.2       1 RES1   0.0000
    19 O19     34.2645  20.7772   9.8994   O.2       1 RES1   0.0000
    20 C20     34.2833  17.8296  10.5075   C.2       1 RES1   0.0000
    21 C21     34.4986  16.4677  10.4861   C.2       1 RES1   0.0000
    22 N22     33.7977  13.7569  12.1161   N.2       1 RES1   0.0000
    23 N23     30.8752  14.0212  12.9237   N.pl3     1 RES1   0.0000
    24 C24     30.9754  15.0597  11.8903   C.3       1 RES1   0.0000
    25 C25     31.1499  16.4381  12.5125   C.3       1 RES1   0.0000
    26 C26     29.8347  14.9856  10.8793   C.3       1 RES1   0.0000
@<TRIPOS>BOND
     1     1     2    1
     2     2     3    2
     3     3     4    1
     4     4     5    2
     5     5     6    1
     6     6     7    2
     7     7     8    1
     8     8     9    2
     9     9    10    1
    10    10    11    1
    11    11    12    1
    12    12    13    2
    13    13    14    1
    14    14    15    2
    15    15    16    1
    16    16    17    1
    17    16    18    2
    18    16    19    2
    19    15    20    1
    20    20    21    2
    21    10    22    2
    22     5    23    1
    23    23    24    1
    24    24    25    1
    25    24    26    1
    26    23     2    1
    27    22     6    1
    28    21    12    1
@<TRIPOS>SUBSTRUCTURE
     1 RES1        1 GROUP             0 ****  ****    0  
@<TRIPOS>MOLECULE
ligand_89
    26    28     1     0     0
SMALL
NO_CHARGES
****
Generated from the CSD

@<TRIPOS>ATOM
     1 C1      28.6741  14.7854  13.9468   C.3       1 RES1   0.0000
     2 C2      29.8490  13.8814  13.8601   C.2       1 RES1   0.0000
     3 N3      30.0533  12.8429  14.6594   N.2       1 RES1   0.0000
     4 C4      31.2430  12.2936  14.2555   C.2       1 RES1   0.0000
     5 C5      31.7850  12.9850  13.2080   C.2       1 RES1   0.0000
     6 C6      33.0450  12.7100  12.5110   C.2       1 RES1   0.0000
     7 C7      33.4902  11.4063  12.3230   C.2       1 RES1   0.0000
     8 C8      34.6977  11.2321  11.6759   C.2       1 RES1   0.0000
     9 N9      35.4502  12.2513  11.2537   N.2       1 RES1   0.0000
    10 C10     34.9636  13.4978  11.4820   C.2       1 RES1   0.0000
    11 N11     35.7772  14.5087  11.0429   N.2       1 RES1   0.0000
    12 C12     35.6353  15.9170  11.0901   C.2       1 RES1   0.0000
    13 C13     36.5421  16.7762  11.7267   C.2       1 RES1   0.0000
    14 C14     36.3310  18.1425  11.7374   C.2       1 RES1   0.0000
    15 C15     35.2047  18.6633  11.1207   C.2       1 RES1   0.0000
    16 S16     34.9141  20.4074  11.1227   S.o2      1 RES1   0.0000
    17 C17     35.8944  21.0220   9.8069   C.3       1 RES1   0.0000
    18 O18     33.5373  20.6082  10.7930   O.2       1 RES1   0.0000
    19 O19     35.4092  20.9651  12.3471   O.2       1 RES1   0.0000
    20 C20     34.2833  17.8296  10.5075   C.2       1 RES1   0.0000
    21 C21     34.4986  16.4677  10.4861   C.2       1 RES1   0.0000
    22 N22     33.7977  13.7569  12.1161   N.2       1 RES1   0.0000
    23 N23     30.8752  14.0212  12.9237   N.pl3     1 RES1   0.0000
    24 C24     30.9754  15.0597  11.8903   C.3       1 RES1   0.0000
    25 C25     31.1499  16.4381  12.5125   C.3       1 RES1   0.0000
    26 C26     29.8347  14.9856  10.8793   C.3       1 RES1   0.0000
@<TRIPOS>BOND
     1     1     2    1
     2     2     3    2
     3     3     4    1
     4     4     5    2
     5     5     6    1
     6     6     7    2
     7     7     8    1
     8     8     9    2
     9     9    10    1
    10    10    11    1
    11    11    12    1
    12    12    13    2
    13    13    14    1
    14    14    15    2
    15    15    16    1
    16    16    17    1
    17    16    18    2
    18    16    19    2
    19    15    20    1
    20    20    21    2
    21    10    22    2
    22     5    23    1
    23    23    24    1
    24    24    25    1
    25    24    26    1
    26    23     2    1
    27    22     6    1
    28    21    12    1
@<TRIPOS>SUBSTRUCTURE
     1 RES1        1 GROUP             0 ****  ****    0  
@<TRIPOS>MOLECULE
ligand_90
    26    28     1     0     0
SMALL
NO_CHARGES
****
Generated from the CSD

@<TRIPOS>ATOM
     1 C1      28.7308  14.8478  14.0247   C.3       1 RES1   0.0000
     2 C2      29.8730  13.9080  13.8931   C.2       1 RES1   0.0000
     3 N3      30.0264  12.8114  14.6231   N.2       1 RES1   0.0000
     4 C4      31.2014  12.2459  14.1991   C.2       1 RES1   0.0000
     5 C5      31.7850  12.9850  13.2080   C.2       1 RES1   0.0000
     6 C6      33.0450  12.7100  12.5110   C.2       1 RES1   0.0000
     7 C7      34.1641  12.2619  13.2037   C.2       1 RES1   0.0000
     8 C8      35.3191  12.0464  12.4779   C.2       1 RES1   0.0000
     9 N9      35.4053  12.2714  11.1645   N.2       1 RES1   0.0000
    10 C10     34.2803  12.7219  10.5528   C.2       1 RES1   0.0000
    11 N11     34.4228  12.9501   9.2096   N.2       1 RES1   0.0000
    12 C12     33.5080  13.4126   8.2325   C.2       1 RES1   0.0000
    13 C13     33.7007  14.5677   7.4615   C.2       1 RES1   0.0000
    14 C14     32.7566  14.9606   6.5311   C.2       1 RES1   0.0000
    15 C15     31.6041  14.2083   6.3695   C.2       1 RES1   0.0000
    16 S16     30.3828  14.6924   5.1861   S.o2      1 RES1   0.0000
    17 C17     30.9766  14.0746   3.6578   C.3       1 RES1   0.0000
    18 O18     29.1757  14.0002   5.5154   O.2       1 RES1   0.0000
    19 O19     30.3469  16.1233   5.1061   O.2       1 RES1   0.0000
    20 C20     31.3826  13.0773   7.1389   C.2       1 RES1   0.0000
    21 C21     32.3289  12.6778   8.0591   C.2       1 RES1   0.0000
    22 N22     33.1128  12.9683  11.1892   N.2       1 RES1   0.0000
    23 N23     30.9185  14.0714  12.9820   N.pl3     1 RES1   0.0000
    24 C24     31.0730  15.1722  12.0225   C.3       1 RES1   0.0000
    25 C25     31.2683  16.5013  12.7387   C.3       1 RES1   0.0000
    26 C26     29.9573  15.1970  10.9816   C.3       1 RES1   0.0000
@<TRIPOS>BOND
     1     1     2    1
     2     2     3    2
     3     3     4    1
     4     4     5    2
     5     5     6    1
     6     6     7    2
     7     7     8    1
     8     8     9    2
     9     9    10    1
    10    10    11    1
    11    11    12    1
    12    12    13    2
    13    13    14    1
    14    14    15    2
    15    15    16    1
    16    16    17    1
    17    16    18    2
    18    16    19    2
    19    15    20    1
    20    20    21    2
    21    10    22    2
    22     5    23    1
    23    23    24    1
    24    24    25    1
    25    24    26    1
    26    23     2    1
    27    22     6    1
    28    21    12    1
@<TRIPOS>SUBSTRUCTURE
     1 RES1        1 GROUP             0 ****  ****    0  
@<TRIPOS>MOLECULE
ligand_91
    26    28     1     0     0
SMALL
NO_CHARGES
****
Generated from the CSD

@<TRIPOS>ATOM
     1 C1      28.7308  14.8478  14.0247   C.3       1 RES1   0.0000
     2 C2      29.8730  13.9080  13.8931   C.2       1 RES1   0.0000
     3 N3      30.0264  12.8114  14.6231   N.2       1 RES1   0.0000
     4 C4      31.2014  12.2459  14.1991   C.2       1 RES1   0.0000
     5 C5      31.7850  12.9850  13.2080   C.2       1 RES1   0.0000
     6 C6      33.0450  12.7100  12.5110   C.2       1 RES1   0.0000
     7 C7      34.1641  12.2619  13.2037   C.2       1 RES1   0.0000
     8 C8      35.3191  12.0464  12.4779   C.2       1 RES1   0.0000
     9 N9      35.4053  12.2714  11.1645   N.2       1 RES1   0.0000
    10 C10     34.2803  12.7219  10.5528   C.2       1 RES1   0.0000
    11 N11     34.4228  12.9501   9.2096   N.2       1 RES1   0.0000
    12 C12     33.5080  13.4126   8.2325   C.2       1 RES1   0.0000
    13 C13     32.8482  14.6481   8.2977   C.2       1 RES1   0.0000
    14 C14     31.9610  15.0272   7.3075   C.2       1 RES1   0.0000
    15 C15     31.7157  14.1698   6.2468   C.2       1 RES1   0.0000
    16 S16     30.5843  14.6337   4.9696   S.o2      1 RES1   0.0000
    17 C17     31.5195  15.6584   3.8993   C.3       1 RES1   0.0000
    18 O18     30.2324  13.4422   4.2617   O.2       1 RES1   0.0000
    19 O19     29.5318  15.4238   5.5380   O.2       1 RES1   0.0000
    20 C20     32.3383  12.9339   6.1762   C.2       1 RES1   0.0000
    21 C21     33.2323  12.5594   7.1572   C.2       1 RES1   0.0000
    22 N22     33.1128  12.9683  11.1892   N.2       1 RES1   0.0000
    23 N23     30.9185  14.0714  12.9820   N.pl3     1 RES1   0.0000
    24 C24     31.0730  15.1722  12.0225   C.3       1 RES1   0.0000
    25 C25     31.2683  16.5013  12.7387   C.3       1 RES1   0.0000
    26 C26     29.9573  15.1970  10.9816   C.3       1 RES1   0.0000
@<TRIPOS>BOND
     1     1     2    1
     2     2     3    2
     3     3     4    1
     4     4     5    2
     5     5     6    1
     6     6     7    2
     7     7     8    1
     8     8     9    2
     9     9    10    1
    10    10    11    1
    11    11    12    1
    12    12    13    2
    13    13    14    1
    14    14    15    2
    15    15    16    1
    16    16    17    1
    17    16    18    2
    18    16    19    2
    19    15    20    1
    20    20    21    2
    21    10    22    2
    22     5    23    1
    23    23    24    1
    24    24    25    1
    25    24    26    1
    26    23     2    1
    27    22     6    1
    28    21    12    1
@<TRIPOS>SUBSTRUCTURE
     1 RES1        1 GROUP             0 ****  ****    0  
@<TRIPOS>MOLECULE
ligand_92
    26    28     1     0     0
SMALL
NO_CHARGES
****
Generated from the CSD

@<TRIPOS>ATOM
     1 C1      29.0214  15.0404  14.4740   C.3       1 RES1   0.0000
     2 C2      29.9963  13.9906  14.0832   C.2       1 RES1   0.0000
     3 N3      29.8873  12.7103  14.4117   N.2       1 RES1   0.0000
     4 C4      30.9873  12.0949  13.8715   C.2       1 RES1   0.0000
     5 C5      31.7850  12.9850  13.2080   C.2       1 RES1   0.0000
     6 C6      33.0450  12.7100  12.5110   C.2       1 RES1   0.0000
     7 C7      33.4257  13.4527  11.3990   C.2       1 RES1   0.0000
     8 C8      34.6167  13.1174  10.7858   C.2       1 RES1   0.0000
     9 N9      35.3893  12.1098  11.1993   N.2       1 RES1   0.0000
    10 C10     34.9516  11.4167  12.2814   C.2       1 RES1   0.0000
    11 N11     35.7710  10.3857  12.6585   N.2       1 RES1   0.0000
    12 C12     35.6689   9.4392  13.7069   C.2       1 RES1   0.0000
    13 C13     36.7649   8.9478  14.4302   C.2       1 RES1   0.0000
    14 C14     36.5861   8.0168  15.4365   C.2       1 RES1   0.0000
    15 C15     35.3099   7.5590  15.7231   C.2       1 RES1   0.0000
    16 S16     35.0577   6.3679  17.0054   S.o2      1 RES1   0.0000
    17 C17     34.9575   4.8310  16.1697   C.3       1 RES1   0.0000
    18 O18     36.2340   6.3648  17.8183   O.2       1 RES1   0.0000
    19 O19     33.7947   6.6167  17.6364   O.2       1 RES1   0.0000
    20 C20     34.2161   8.0130  15.0037   C.2       1 RES1   0.0000
    21 C21     34.3917   8.9503  14.0075   C.2       1 RES1   0.0000
    22 N22     33.7949  11.6721  12.9337   N.2       1 RES1   0.0000
    23 N23     31.1416  14.2321  13.3220   N.pl3     1 RES1   0.0000
    24 C24     31.5765  15.5304  12.7913   C.3       1 RES1   0.0000
    25 C25     31.7526  16.5490  13.9088   C.3       1 RES1   0.0000
    26 C26     30.6867  16.0204  11.6524   C.3       1 RES1   0.0000
@<TRIPOS>BOND
     1     1     2    1
     2     2     3    2
     3     3     4    1
     4     4     5    2
     5     5     6    1
     6     6     7    2
     7     7     8    1
     8     8     9    2
     9     9    10    1
    10    10    11    1
    11    11    12    1
    12    12    13    2
    13    13    14    1
    14    14    15    2
    15    15    16    1
    16    16    17    1
    17    16    18    2
    18    16    19    2
    19    15    20    1
    20    20    21    2
    21    10    22    2
    22     5    23    1
    23    23    24    1
    24    24    25    1
    25    24    26    1
    26    23     2    1
    27    22     6    1
    28    21    12    1
@<TRIPOS>SUBSTRUCTURE
     1 RES1        1 GROUP             0 ****  ****    0  
@<TRIPOS>MOLECULE
ligand_93
    26    28     1     0     0
SMALL
NO_CHARGES
****
Generated from the CSD

@<TRIPOS>ATOM
     1 C1      28.7414  14.8585  14.0396   C.3       1 RES1   0.0000
     2 C2      29.8775  13.9126  13.8994   C.2       1 RES1   0.0000
     3 N3      30.0214  12.8060  14.6162   N.2       1 RES1   0.0000
     4 C4      31.1937  12.2377  14.1883   C.2       1 RES1   0.0000
     5 C5      31.7850  12.9850  13.2080   C.2       1 RES1   0.0000
     6 C6      33.0450  12.7100  12.5110   C.2       1 RES1   0.0000
     7 C7      33.8664  11.6591  12.9033   C.2       1 RES1   0.0000
     8 C8      35.0468  11.4793  12.2095   C.2       1 RES1   0.0000
     9 N9      35.4320  12.2773  11.2105   N.2       1 RES1   0.0000
    10 C10     34.5903  13.2923  10.8883   C.2       1 RES1   0.0000
    11 N11     35.0355  14.0900   9.8673   N.2       1 RES1   0.0000
    12 C12     34.5865  15.3461   9.3918   C.2       1 RES1   0.0000
    13 C13     33.2369  15.7164   9.3070   C.2       1 RES1   0.0000
    14 C14     32.8755  16.9602   8.8233   C.2       1 RES1   0.0000
    15 C15     33.8600  17.8430   8.4089   C.2       1 RES1   0.0000
    16 S16     33.4209  19.4386   7.7862   S.o2      1 RES1   0.0000
    17 C17     32.6137  19.1144   6.2651   C.3       1 RES1   0.0000
    18 O18     32.4684  20.0001   8.6928   O.2       1 RES1   0.0000
    19 O19     34.6160  20.1802   7.5087   O.2       1 RES1   0.0000
    20 C20     35.1982  17.4874   8.4610   C.2       1 RES1   0.0000
    21 C21     35.5606  16.2516   8.9541   C.2       1 RES1   0.0000
    22 N22     33.4226  13.5449  11.5217   N.2       1 RES1   0.0000
    23 N23     30.9266  14.0801  12.9932   N.pl3     1 RES1   0.0000
    24 C24     31.0913  15.1916  12.0479   C.3       1 RES1   0.0000
    25 C25     31.2934  16.5103  12.7810   C.3       1 RES1   0.0000
    26 C26     29.9787  15.2368  11.0043   C.3       1 RES1   0.0000
@<TRIPOS>BOND
     1     1     2    1
     2     2     3    2
     3     3     4    1
     4     4     5    2
     5     5     6    1
     6     6     7    2
     7     7     8    1
     8     8     9    2
     9     9    10    1
    10    10    11    1
    11    11    12    1
    12    12    13    2
    13    13    14    1
    14    14    15    2
    15    15    16    1
    16    16    17    1
    17    16    18    2
    18    16    19    2
    19    15    20    1
    20    20    21    2
    21    10    22    2
    22     5    23    1
    23    23    24    1
    24    24    25    1
    25    24    26    1
    26    23     2    1
    27    22     6    1
    28    21    12    1
@<TRIPOS>SUBSTRUCTURE
     1 RES1        1 GROUP             0 ****  ****    0  
@<TRIPOS>MOLECULE
ligand_94
    26    28     1     0     0
SMALL
NO_CHARGES
****
Generated from the CSD

@<TRIPOS>ATOM
     1 C1      28.6165  14.7130  13.8713   C.3       1 RES1   0.0000
     2 C2      29.8246  13.8505  13.8282   C.2       1 RES1   0.0000
     3 N3      30.0805  12.8792  14.6942   N.2       1 RES1   0.0000
     4 C4      31.2851  12.3486  14.3098   C.2       1 RES1   0.0000
     5 C5      31.7850  12.9850  13.2080   C.2       1 RES1   0.0000
     6 C6      33.0450  12.7100  12.5110   C.2       1 RES1   0.0000
     7 C7      33.8008  13.7406  11.9635   C.2       1 RES1   0.0000
     8 C8      34.9645  13.3969  11.3042   C.2       1 RES1   0.0000
     9 N9      35.3700  12.1333  11.1553   N.2       1 RES1   0.0000
    10 C10     34.5781  11.1756  11.7013   C.2       1 RES1   0.0000
    11 N11     35.0292   9.8962  11.5107   N.2       1 RES1   0.0000
    12 C12     36.1737   9.3924  10.8461   C.2       1 RES1   0.0000
    13 C13     37.1600   8.6110  11.4645   C.2       1 RES1   0.0000
    14 C14     38.2552   8.1619  10.7502   C.2       1 RES1   0.0000
    15 C15     38.3814   8.4988   9.4120   C.2       1 RES1   0.0000
    16 S16     39.7742   7.9362   8.4792   S.o2      1 RES1   0.0000
    17 C17     40.8864   9.2901   8.4825   C.3       1 RES1   0.0000
    18 O18     40.3682   6.8611   9.2111   O.2       1 RES1   0.0000
    19 O19     39.3673   7.6954   7.1258   O.2       1 RES1   0.0000
    20 C20     37.4308   9.2908   8.7881   C.2       1 RES1   0.0000
    21 C21     36.3321   9.7297   9.4964   C.2       1 RES1   0.0000
    22 N22     33.4198  11.4243  12.3533   N.2       1 RES1   0.0000
    23 N23     30.8315  13.9633  12.8674   N.pl3     1 RES1   0.0000
    24 C24     30.8765  14.9299  11.7629   C.3       1 RES1   0.0000
    25 C25     31.0873  16.3458  12.2808   C.3       1 RES1   0.0000
    26 C26     29.6820  14.7945  10.8229   C.3       1 RES1   0.0000
@<TRIPOS>BOND
     1     1     2    1
     2     2     3    2
     3     3     4    1
     4     4     5    2
     5     5     6    1
     6     6     7    2
     7     7     8    1
     8     8     9    2
     9     9    10    1
    10    10    11    1
    11    11    12    1
    12    12    13    2
    13    13    14    1
    14    14    15    2
    15    15    16    1
    16    16    17    1
    17    16    18    2
    18    16    19    2
    19    15    20    1
    20    20    21    2
    21    10    22    2
    22     5    23    1
    23    23    24    1
    24    24    25    1
    25    24    26    1
    26    23     2    1
    27    22     6    1
    28    21    12    1
@<TRIPOS>SUBSTRUCTURE
     1 RES1        1 GROUP             0 ****  ****    0  
@<TRIPOS>MOLECULE
ligand_95
    26    28     1     0     0
SMALL
NO_CHARGES
****
Generated from the CSD

@<TRIPOS>ATOM
     1 C1      28.6165  14.7130  13.8713   C.3       1 RES1   0.0000
     2 C2      29.8246  13.8505  13.8282   C.2       1 RES1   0.0000
     3 N3      30.0805  12.8792  14.6942   N.2       1 RES1   0.0000
     4 C4      31.2851  12.3486  14.3098   C.2       1 RES1   0.0000
     5 C5      31.7850  12.9850  13.2080   C.2       1 RES1   0.0000
     6 C6      33.0450  12.7100  12.5110   C.2       1 RES1   0.0000
     7 C7      33.8008  13.7406  11.9635   C.2       1 RES1   0.0000
     8 C8      34.9645  13.3969  11.3042   C.2       1 RES1   0.0000
     9 N9      35.3700  12.1333  11.1553   N.2       1 RES1   0.0000
    10 C10     34.5781  11.1756  11.7013   C.2       1 RES1   0.0000
    11 N11     35.0292   9.8962  11.5107   N.2       1 RES1   0.0000
    12 C12     36.1737   9.3924  10.8461   C.2       1 RES1   0.0000
    13 C13     37.1600   8.6110  11.4645   C.2       1 RES1   0.0000
    14 C14     38.2552   8.1619  10.7502   C.2       1 RES1   0.0000
    15 C15     38.3814   8.4988   9.4120   C.2       1 RES1   0.0000
    16 S16     39.7742   7.9362   8.4792   S.o2      1 RES1   0.0000
    17 C17     39.3607   6.3000   8.0079   C.3       1 RES1   0.0000
    18 O18     39.8479   8.7415   7.3000   O.2       1 RES1   0.0000
    19 O19     40.9217   7.8778   9.3366   O.2       1 RES1   0.0000
    20 C20     37.4308   9.2908   8.7881   C.2       1 RES1   0.0000
    21 C21     36.3321   9.7297   9.4964   C.2       1 RES1   0.0000
    22 N22     33.4198  11.4243  12.3533   N.2       1 RES1   0.0000
    23 N23     30.8315  13.9633  12.8674   N.pl3     1 RES1   0.0000
    24 C24     30.8765  14.9299  11.7629   C.3       1 RES1   0.0000
    25 C25     31.0873  16.3458  12.2808   C.3       1 RES1   0.0000
    26 C26     29.6820  14.7945  10.8229   C.3       1 RES1   0.0000
@<TRIPOS>BOND
     1     1     2    1
     2     2     3    2
     3     3     4    1
     4     4     5    2
     5     5     6    1
     6     6     7    2
     7     7     8    1
     8     8     9    2
     9     9    10    1
    10    10    11    1
    11    11    12    1
    12    12    13    2
    13    13    14    1
    14    14    15    2
    15    15    16    1
    16    16    17    1
    17    16    18    2
    18    16    19    2
    19    15    20    1
    20    20    21    2
    21    10    22    2
    22     5    23    1
    23    23    24    1
    24    24    25    1
    25    24    26    1
    26    23     2    1
    27    22     6    1
    28    21    12    1
@<TRIPOS>SUBSTRUCTURE
     1 RES1        1 GROUP             0 ****  ****    0  
@<TRIPOS>MOLECULE
ligand_96
    26    28     1     0     0
SMALL
NO_CHARGES
****
Generated from the CSD

@<TRIPOS>ATOM
     1 C1      28.6165  14.7130  13.8713   C.3       1 RES1   0.0000
     2 C2      29.8246  13.8505  13.8282   C.2       1 RES1   0.0000
     3 N3      30.0805  12.8792  14.6942   N.2       1 RES1   0.0000
     4 C4      31.2851  12.3486  14.3098   C.2       1 RES1   0.0000
     5 C5      31.7850  12.9850  13.2080   C.2       1 RES1   0.0000
     6 C6      33.0450  12.7100  12.5110   C.2       1 RES1   0.0000
     7 C7      33.8008  13.7406  11.9635   C.2       1 RES1   0.0000
     8 C8      34.9645  13.3969  11.3042   C.2       1 RES1   0.0000
     9 N9      35.3700  12.1333  11.1553   N.2       1 RES1   0.0000
    10 C10     34.5781  11.1756  11.7013   C.2       1 RES1   0.0000
    11 N11     35.0292   9.8962  11.5107   N.2       1 RES1   0.0000
    12 C12     34.5037   8.6444  11.9137   C.2       1 RES1   0.0000
    13 C13     34.1553   7.6169  11.0256   C.2       1 RES1   0.0000
    14 C14     33.6392   6.4233  11.4951   C.2       1 RES1   0.0000
    15 C15     33.4559   6.2486  12.8575   C.2       1 RES1   0.0000
    16 S16     32.7967   4.7306  13.4803   S.o2      1 RES1   0.0000
    17 C17     34.1701   3.6445  13.5459   C.3       1 RES1   0.0000
    18 O18     32.3517   4.9783  14.8164   O.2       1 RES1   0.0000
    19 O19     31.8554   4.2043  12.5358   O.2       1 RES1   0.0000
    20 C20     33.7703   7.2606  13.7503   C.2       1 RES1   0.0000
    21 C21     34.2960   8.4473  13.2842   C.2       1 RES1   0.0000
    22 N22     33.4198  11.4243  12.3533   N.2       1 RES1   0.0000
    23 N23     30.8315  13.9633  12.8674   N.pl3     1 RES1   0.0000
    24 C24     30.8765  14.9299  11.7629   C.3       1 RES1   0.0000
    25 C25     31.0873  16.3458  12.2808   C.3       1 RES1   0.0000
    26 C26     29.6820  14.7945  10.8229   C.3       1 RES1   0.0000
@<TRIPOS>BOND
     1     1     2    1
     2     2     3    2
     3     3     4    1
     4     4     5    2
     5     5     6    1
     6     6     7    2
     7     7     8    1
     8     8     9    2
     9     9    10    1
    10    10    11    1
    11    11    12    1
    12    12    13    2
    13    13    14    1
    14    14    15    2
    15    15    16    1
    16    16    17    1
    17    16    18    2
    18    16    19    2
    19    15    20    1
    20    20    21    2
    21    10    22    2
    22     5    23    1
    23    23    24    1
    24    24    25    1
    25    24    26    1
    26    23     2    1
    27    22     6    1
    28    21    12    1
@<TRIPOS>SUBSTRUCTURE
     1 RES1        1 GROUP             0 ****  ****    0  
@<TRIPOS>MOLECULE
ligand_97
    26    28     1     0     0
SMALL
NO_CHARGES
****
Generated from the CSD

@<TRIPOS>ATOM
     1 C1      28.6165  14.7130  13.8713   C.3       1 RES1   0.0000
     2 C2      29.8246  13.8505  13.8282   C.2       1 RES1   0.0000
     3 N3      30.0805  12.8792  14.6942   N.2       1 RES1   0.0000
     4 C4      31.2851  12.3486  14.3098   C.2       1 RES1   0.0000
     5 C5      31.7850  12.9850  13.2080   C.2       1 RES1   0.0000
     6 C6      33.0450  12.7100  12.5110   C.2       1 RES1   0.0000
     7 C7      33.8008  13.7406  11.9635   C.2       1 RES1   0.0000
     8 C8      34.9645  13.3969  11.3042   C.2       1 RES1   0.0000
     9 N9      35.3700  12.1333  11.1553   N.2       1 RES1   0.0000
    10 C10     34.5781  11.1756  11.7013   C.2       1 RES1   0.0000
    11 N11     35.0292   9.8962  11.5107   N.2       1 RES1   0.0000
    12 C12     34.5037   8.6444  11.9137   C.2       1 RES1   0.0000
    13 C13     33.2343   8.1725  11.5505   C.2       1 RES1   0.0000
    14 C14     32.7868   6.9408  11.9909   C.2       1 RES1   0.0000
    15 C15     33.6000   6.1723  12.8085   C.2       1 RES1   0.0000
    16 S16     33.0479   4.5942  13.3842   S.o2      1 RES1   0.0000
    17 C17     33.3787   3.4977  12.0581   C.3       1 RES1   0.0000
    18 O18     33.8797   4.2314  14.4892   O.2       1 RES1   0.0000
    19 O19     31.6291   4.6372  13.5853   O.2       1 RES1   0.0000
    20 C20     34.8477   6.6309  13.1995   C.2       1 RES1   0.0000
    21 C21     35.3000   7.8542  12.7515   C.2       1 RES1   0.0000
    22 N22     33.4198  11.4243  12.3533   N.2       1 RES1   0.0000
    23 N23     30.8315  13.9633  12.8674   N.pl3     1 RES1   0.0000
    24 C24     30.8765  14.9299  11.7629   C.3       1 RES1   0.0000
    25 C25     31.0873  16.3458  12.2808   C.3       1 RES1   0.0000
    26 C26     29.6820  14.7945  10.8229   C.3       1 RES1   0.0000
@<TRIPOS>BOND
     1     1     2    1
     2     2     3    2
     3     3     4    1
     4     4     5    2
     5     5     6    1
     6     6     7    2
     7     7     8    1
     8     8     9    2
     9     9    10    1
    10    10    11    1
    11    11    12    1
    12    12    13    2
    13    13    14    1
    14    14    15    2
    15    15    16    1
    16    16    17    1
    17    16    18    2
    18    16    19    2
    19    15    20    1
    20    20    21    2
    21    10    22    2
    22     5    23    1
    23    23    24    1
    24    24    25    1
    25    24    26    1
    26    23     2    1
    27    22     6    1
    28    21    12    1
@<TRIPOS>SUBSTRUCTURE
     1 RES1        1 GROUP             0 ****  ****    0  
@<TRIPOS>MOLECULE
ligand_98
    26    28     1     0     0
SMALL
NO_CHARGES
****
Generated from the CSD

@<TRIPOS>ATOM
     1 C1      28.6988  14.8136  13.9803   C.3       1 RES1   0.0000
     2 C2      29.8595  13.8934  13.8743   C.2       1 RES1   0.0000
     3 N3      30.0416  12.8287  14.6438   N.2       1 RES1   0.0000
     4 C4      31.2249  12.2720  14.2312   C.2       1 RES1   0.0000
     5 C5      31.7850  12.9850  13.2080   C.2       1 RES1   0.0000
     6 C6      33.0450  12.7100  12.5110   C.2       1 RES1   0.0000
     7 C7      33.4902  11.4063  12.3230   C.2       1 RES1   0.0000
     8 C8      34.6977  11.2321  11.6759   C.2       1 RES1   0.0000
     9 N9      35.4502  12.2513  11.2537   N.2       1 RES1   0.0000
    10 C10     34.9636  13.4978  11.4820   C.2       1 RES1   0.0000
    11 N11     35.7772  14.5087  11.0429   N.2       1 RES1   0.0000
    12 C12     37.0254  14.4875  10.3743   C.2       1 RES1   0.0000
    13 C13     37.4225  13.4784   9.4856   C.2       1 RES1   0.0000
    14 C14     38.6629  13.5227   8.8764   C.2       1 RES1   0.0000
    15 C15     39.5239  14.5713   9.1582   C.2       1 RES1   0.0000
    16 S16     41.1153  14.6479   8.3913   S.o2      1 RES1   0.0000
    17 C17     41.0248  16.0306   7.3189   C.3       1 RES1   0.0000
    18 O18     42.0676  14.9340   9.4188   O.2       1 RES1   0.0000
    19 O19     41.3088  13.4739   7.5915   O.2       1 RES1   0.0000
    20 C20     39.1608  15.5654  10.0525   C.2       1 RES1   0.0000
    21 C21     37.9194  15.5286  10.6519   C.2       1 RES1   0.0000
    22 N22     33.7977  13.7569  12.1161   N.2       1 RES1   0.0000
    23 N23     30.8941  14.0439  12.9487   N.pl3     1 RES1   0.0000
    24 C24     31.0179  15.1105  11.9471   C.3       1 RES1   0.0000
    25 C25     31.2908  14.5358  10.5641   C.3       1 RES1   0.0000
    26 C26     32.0114  16.1900  12.3673   C.3       1 RES1   0.0000
@<TRIPOS>BOND
     1     1     2    1
     2     2     3    2
     3     3     4    1
     4     4     5    2
     5     5     6    1
     6     6     7    2
     7     7     8    1
     8     8     9    2
     9     9    10    1
    10    10    11    1
    11    11    12    1
    12    12    13    2
    13    13    14    1
    14    14    15    2
    15    15    16    1
    16    16    17    1
    17    16    18    2
    18    16    19    2
    19    15    20    1
    20    20    21    2
    21    10    22    2
    22     5    23    1
    23    23    24    1
    24    24    25    1
    25    24    26    1
    26    23     2    1
    27    22     6    1
    28    21    12    1
@<TRIPOS>SUBSTRUCTURE
     1 RES1        1 GROUP             0 ****  ****    0  
@<TRIPOS>MOLECULE
ligand_99
    26    28     1     0     0
SMALL
NO_CHARGES
****
Generated from the CSD

@<TRIPOS>ATOM
     1 C1      28.6988  14.8136  13.9803   C.3       1 RES1   0.0000
     2 C2      29.8595  13.8934  13.8743   C.2       1 RES1   0.0000
     3 N3      30.0416  12.8287  14.6438   N.2       1 RES1   0.0000
     4 C4      31.2249  12.2720  14.2312   C.2       1 RES1   0.0000
     5 C5      31.7850  12.9850  13.2080   C.2       1 RES1   0.0000
     6 C6      33.0450  12.7100  12.5110   C.2       1 RES1   0.0000
     7 C7      33.4902  11.4063  12.3230   C.2       1 RES1   0.0000
     8 C8      34.6977  11.2321  11.6759   C.2       1 RES1   0.0000
     9 N9      35.4502  12.2513  11.2537   N.2       1 RES1   0.0000
    10 C10     34.9636  13.4978  11.4820   C.2       1 RES1   0.0000
    11 N11     35.7772  14.5087  11.0429   N.2       1 RES1   0.0000
    12 C12     37.0254  14.4875  10.3743   C.2       1 RES1   0.0000
    13 C13     37.4225  13.4784   9.4856   C.2       1 RES1   0.0000
    14 C14     38.6629  13.5227   8.8764   C.2       1 RES1   0.0000
    15 C15     39.5239  14.5713   9.1582   C.2       1 RES1   0.0000
    16 S16     41.1153  14.6479   8.3913   S.o2      1 RES1   0.0000
    17 C17     42.0042  13.3036   9.0790   C.3       1 RES1   0.0000
    18 O18     40.9260  14.3985   6.9962   O.2       1 RES1   0.0000
    19 O19     41.7681  15.8626   8.7833   O.2       1 RES1   0.0000
    20 C20     39.1608  15.5654  10.0525   C.2       1 RES1   0.0000
    21 C21     37.9194  15.5286  10.6519   C.2       1 RES1   0.0000
    22 N22     33.7977  13.7569  12.1161   N.2       1 RES1   0.0000
    23 N23     30.8941  14.0439  12.9487   N.pl3     1 RES1   0.0000
    24 C24     31.0179  15.1105  11.9471   C.3       1 RES1   0.0000
    25 C25     31.2908  14.5358  10.5641   C.3       1 RES1   0.0000
    26 C26     32.0114  16.1900  12.3673   C.3       1 RES1   0.0000
@<TRIPOS>BOND
     1     1     2    1
     2     2     3    2
     3     3     4    1
     4     4     5    2
     5     5     6    1
     6     6     7    2
     7     7     8    1
     8     8     9    2
     9     9    10    1
    10    10    11    1
    11    11    12    1
    12    12    13    2
    13    13    14    1
    14    14    15    2
    15    15    16    1
    16    16    17    1
    17    16    18    2
    18    16    19    2
    19    15    20    1
    20    20    21    2
    21    10    22    2
    22     5    23    1
    23    23    24    1
    24    24    25    1
    25    24    26    1
    26    23     2    1
    27    22     6    1
    28    21    12    1
@<TRIPOS>SUBSTRUCTURE
     1 RES1        1 GROUP             0 ****  ****    0  
