@<TRIPOS>MOLECULE
native
    29    33     1     0     0
SMALL
USER_CHARGES
****
Generated from the CSD

@<TRIPOS>ATOM
     1 C1     -12.1900   9.4700  48.6410   C.3       1 RES1   0.0000
     2 C2     -12.4260   8.5850  47.4360   C.3       1 RES1   0.0000
     3 C3     -11.1860   8.3860  46.5750   C.3       1 RES1   0.0000
     4 C4     -11.6230   7.2690  45.6900   C.3       1 RES1   0.0000
     5 C5     -12.5600   6.4070  46.5590   C.3       1 RES1   0.0000
     6 N6     -12.7800   7.1850  47.7970   N.3       1 RES1   1.0000
     7 C7     -14.1440   7.0510  48.3310   C.3       1 RES1   0.0000
     8 C8     -14.4870   5.6350  48.6660   C.2       1 RES1   0.0000
     9 N9     -14.9250   4.7590  47.7340   N.2       1 RES1   0.0000
    10 C10    -15.0880   3.5390  48.3670   C.2       1 RES1   0.0000
    11 C11    -15.5390   2.2970  47.9230   C.2       1 RES1   0.0000
    12 C12    -15.5830   1.2480  48.8340   C.2       1 RES1   0.0000
    13 C13    -15.1850   1.4410  50.1650   C.2       1 RES1   0.0000
    14 N14    -15.2860   0.3550  51.0660   N.am      1 RES1   0.0000
    15 C15    -15.1240   0.3720  52.4140   C.2       1 RES1   0.0000
    16 O16    -15.0560   1.4050  53.0770   O.2       1 RES1   0.0000
    17 C17    -15.1430  -0.9610  53.0850   C.2       1 RES1   0.0000
    18 C18    -14.2890  -1.1830  54.1700   C.2       1 RES1   0.0000
    19 C19    -14.2760  -2.4010  54.8360   C.2       1 RES1   0.0000
    20 C20    -15.1490  -3.3880  54.4150   C.2       1 RES1   0.0000
    21 C21    -16.0510  -3.1750  53.3630   C.2       1 RES1   0.0000
    22 C22    -16.7790  -4.3940  53.2730   C.2       1 RES1   0.0000
    23 N23    -16.3510  -5.2730  54.1540   N.2       1 RES1   0.0000
    24 N24    -15.3390  -4.6620  54.8370   N.pl3     1 RES1   0.0000
    25 C25    -14.5570  -5.4110  55.8040   C.3       1 RES1   0.0000
    26 C26    -16.0250  -1.9650  52.6740   C.2       1 RES1   0.0000
    27 C27    -14.7510   2.6980  50.5970   C.2       1 RES1   0.0000
    28 C28    -14.7090   3.7530  49.6890   C.2       1 RES1   0.0000
    29 N29    -14.3490   5.0890  49.8600   N.2       1 RES1   0.0000
@<TRIPOS>BOND
     1     2     1    1
     2     2     3    1
     3     3     4    1
     4     4     5    1
     5     5     6    1
     6     6     7    1
     7     7     8    1
     8     8     9    2
     9     9    10    1
    10    10    11    2
    11    11    12    1
    12    12    13    2
    13    13    14    1
    14    14    15   am
    15    15    16    2
    16    15    17    1
    17    17    18    2
    18    18    19    1
    19    19    20    2
    20    20    21    1
    21    21    22    1
    22    22    23    2
    23    23    24    1
    24    24    25    1
    25    21    26    2
    26    13    27    1
    27    27    28    2
    28    28    29    1
    29     6     2    1
    30    29     8    1
    31    28    10    1
    32    26    17    1
    33    24    20    1
@<TRIPOS>SUBSTRUCTURE
     1 RES1        1 GROUP             0 ****  ****    0  
@<TRIPOS>MOLECULE
ligand_0
    29    33     1     0     0
SMALL
USER_CHARGES
****
Generated from the CSD

@<TRIPOS>ATOM
     1 C1     -12.1587   9.4476  48.6120   C.3       1 RES1   0.0000
     2 C2     -12.3898   8.5359  47.4262   C.3       1 RES1   0.0000
     3 C3     -11.1661   8.2652  46.5570   C.3       1 RES1   0.0000
     4 C4     -11.2188   6.8361  46.1302   C.3       1 RES1   0.0000
     5 C5     -12.5182   6.2955  46.6754   C.3       1 RES1   0.0000
     6 N6     -12.8234   7.1565  47.8450   N.3       1 RES1   1.0000
     7 C7     -14.2284   7.0517  48.2674   C.3       1 RES1   0.0000
     8 C8     -14.4833   7.7389  49.5704   C.2       1 RES1   0.0000
     9 N9     -14.8963   9.0244  49.6392   N.2       1 RES1   0.0000
    10 C10    -15.0900   9.3185  50.9778   C.2       1 RES1   0.0000
    11 C11    -15.4759  10.4808  51.6436   C.2       1 RES1   0.0000
    12 C12    -15.5790  10.4428  53.0293   C.2       1 RES1   0.0000
    13 C13    -15.2982   9.2631  53.7341   C.2       1 RES1   0.0000
    14 N14    -15.3768   9.2834  55.1465   N.am      1 RES1   0.0000
    15 C15    -15.1745   8.2535  56.0078   C.2       1 RES1   0.0000
    16 O16    -14.9227   7.1056  55.6469   O.2       1 RES1   0.0000
    17 C17    -15.1635   8.6137  57.4562   C.2       1 RES1   0.0000
    18 C18    -15.4778   7.6298  58.3990   C.2       1 RES1   0.0000
    19 C19    -15.4709   7.9100  59.7587   C.2       1 RES1   0.0000
    20 C20    -15.1207   9.1855  60.1636   C.2       1 RES1   0.0000
    21 C21    -14.7522  10.1764  59.2428   C.2       1 RES1   0.0000
    22 C22    -14.4346  11.3043  60.0497   C.2       1 RES1   0.0000
    23 N23    -14.6170  11.0453  61.3271   N.2       1 RES1   0.0000
    24 N24    -15.0575   9.7547  61.3922   N.pl3     1 RES1   0.0000
    25 C25    -15.4802   9.1927  62.6622   C.3       1 RES1   0.0000
    26 C26    -14.8050   9.8971  57.8795   C.2       1 RES1   0.0000
    27 C27    -14.8965   8.1111  53.0511   C.2       1 RES1   0.0000
    28 C28    -14.7878   8.1454  51.6632   C.2       1 RES1   0.0000
    29 N29    -14.3901   7.1648  50.7555   N.2       1 RES1   0.0000
@<TRIPOS>BOND
     1     2     1    1
     2     2     3    1
     3     3     4    1
     4     4     5    1
     5     5     6    1
     6     6     7    1
     7     7     8    1
     8     8     9    2
     9     9    10    1
    10    10    11    2
    11    11    12    1
    12    12    13    2
    13    13    14    1
    14    14    15   am
    15    15    16    2
    16    15    17    1
    17    17    18    2
    18    18    19    1
    19    19    20    2
    20    20    21    1
    21    21    22    1
    22    22    23    2
    23    23    24    1
    24    24    25    1
    25    21    26    2
    26    13    27    1
    27    27    28    2
    28    28    29    1
    29     6     2    1
    30    29     8    1
    31    28    10    1
    32    26    17    1
    33    24    20    1
@<TRIPOS>SUBSTRUCTURE
     1 RES1        1 GROUP             0 ****  ****    0  
@<TRIPOS>MOLECULE
ligand_1
    29    33     1     0     0
SMALL
USER_CHARGES
****
Generated from the CSD

@<TRIPOS>ATOM
     1 C1     -12.1575   9.4461  48.6148   C.3       1 RES1   0.0000
     2 C2     -12.3890   8.5359  47.4279   C.3       1 RES1   0.0000
     3 C3     -11.1654   8.2656  46.5584   C.3       1 RES1   0.0000
     4 C4     -11.2189   6.8370  46.1299   C.3       1 RES1   0.0000
     5 C5     -12.5186   6.2964  46.6745   C.3       1 RES1   0.0000
     6 N6     -12.8233   7.1562  47.8451   N.3       1 RES1   1.0000
     7 C7     -14.2284   7.0517  48.2674   C.3       1 RES1   0.0000
     8 C8     -14.4833   7.7389  49.5704   C.2       1 RES1   0.0000
     9 N9     -14.8963   9.0244  49.6392   N.2       1 RES1   0.0000
    10 C10    -15.0900   9.3185  50.9778   C.2       1 RES1   0.0000
    11 C11    -15.4759  10.4808  51.6436   C.2       1 RES1   0.0000
    12 C12    -15.5790  10.4428  53.0293   C.2       1 RES1   0.0000
    13 C13    -15.2982   9.2631  53.7341   C.2       1 RES1   0.0000
    14 N14    -15.3768   9.2834  55.1465   N.am      1 RES1   0.0000
    15 C15    -15.1631   8.2563  56.0084   C.2       1 RES1   0.0000
    16 O16    -14.8582   7.1207  55.6496   O.2       1 RES1   0.0000
    17 C17    -15.2097   8.6077  57.4582   C.2       1 RES1   0.0000
    18 C18    -14.3798   7.9173  58.3473   C.2       1 RES1   0.0000
    19 C19    -14.3766   8.2135  59.7036   C.2       1 RES1   0.0000
    20 C20    -15.2001   9.2292  60.1550   C.2       1 RES1   0.0000
    21 C21    -16.0044   9.9711  59.2784   C.2       1 RES1   0.0000
    22 C22    -16.6508  10.9224  60.1158   C.2       1 RES1   0.0000
    23 N23    -16.3052  10.7638  61.3757   N.2       1 RES1   0.0000
    24 N24    -15.4339   9.7130  61.3995   N.pl3     1 RES1   0.0000
    25 C25    -14.9578   9.1903  62.6674   C.3       1 RES1   0.0000
    26 C26    -16.0324   9.6365  57.9269   C.2       1 RES1   0.0000
    27 C27    -14.8965   8.1111  53.0511   C.2       1 RES1   0.0000
    28 C28    -14.7878   8.1454  51.6632   C.2       1 RES1   0.0000
    29 N29    -14.3901   7.1648  50.7555   N.2       1 RES1   0.0000
@<TRIPOS>BOND
     1     2     1    1
     2     2     3    1
     3     3     4    1
     4     4     5    1
     5     5     6    1
     6     6     7    1
     7     7     8    1
     8     8     9    2
     9     9    10    1
    10    10    11    2
    11    11    12    1
    12    12    13    2
    13    13    14    1
    14    14    15   am
    15    15    16    2
    16    15    17    1
    17    17    18    2
    18    18    19    1
    19    19    20    2
    20    20    21    1
    21    21    22    1
    22    22    23    2
    23    23    24    1
    24    24    25    1
    25    21    26    2
    26    13    27    1
    27    27    28    2
    28    28    29    1
    29     6     2    1
    30    29     8    1
    31    28    10    1
    32    26    17    1
    33    24    20    1
@<TRIPOS>SUBSTRUCTURE
     1 RES1        1 GROUP             0 ****  ****    0  
@<TRIPOS>MOLECULE
ligand_2
    29    33     1     0     0
SMALL
USER_CHARGES
****
Generated from the CSD

@<TRIPOS>ATOM
     1 C1     -12.1590   9.4479  48.6123   C.3       1 RES1   0.0000
     2 C2     -12.3902   8.5364  47.4263   C.3       1 RES1   0.0000
     3 C3     -11.1666   8.2662  46.5568   C.3       1 RES1   0.0000
     4 C4     -11.2191   6.8372  46.1296   C.3       1 RES1   0.0000
     5 C5     -12.5184   6.2962  46.6749   C.3       1 RES1   0.0000
     6 N6     -12.8235   7.1568  47.8448   N.3       1 RES1   1.0000
     7 C7     -14.2284   7.0517  48.2674   C.3       1 RES1   0.0000
     8 C8     -14.4833   7.7389  49.5704   C.2       1 RES1   0.0000
     9 N9     -14.8963   9.0244  49.6392   N.2       1 RES1   0.0000
    10 C10    -15.0900   9.3185  50.9778   C.2       1 RES1   0.0000
    11 C11    -15.4759  10.4808  51.6436   C.2       1 RES1   0.0000
    12 C12    -15.5790  10.4428  53.0293   C.2       1 RES1   0.0000
    13 C13    -15.2982   9.2631  53.7341   C.2       1 RES1   0.0000
    14 N14    -15.3768   9.2834  55.1465   N.am      1 RES1   0.0000
    15 C15    -15.1603   8.2570  56.0086   C.2       1 RES1   0.0000
    16 O16    -14.8371   7.1261  55.6508   O.2       1 RES1   0.0000
    17 C17    -15.2280   8.6044  57.4585   C.2       1 RES1   0.0000
    18 C18    -16.1409   9.5773  57.8778   C.2       1 RES1   0.0000
    19 C19    -16.2516   9.9287  59.2163   C.2       1 RES1   0.0000
    20 C20    -15.4507   9.2739  60.1346   C.2       1 RES1   0.0000
    21 C21    -14.5635   8.2593  59.7482   C.2       1 RES1   0.0000
    22 C22    -13.9722   7.8272  60.9680   C.2       1 RES1   0.0000
    23 N23    -14.4240   8.5213  61.9908   N.2       1 RES1   0.0000
    24 N24    -15.3126   9.4203  61.4750   N.pl3     1 RES1   0.0000
    25 C25    -15.9014  10.4349  62.3303   C.3       1 RES1   0.0000
    26 C26    -14.4292   7.9456  58.3980   C.2       1 RES1   0.0000
    27 C27    -14.8965   8.1111  53.0511   C.2       1 RES1   0.0000
    28 C28    -14.7878   8.1454  51.6632   C.2       1 RES1   0.0000
    29 N29    -14.3901   7.1648  50.7555   N.2       1 RES1   0.0000
@<TRIPOS>BOND
     1     2     1    1
     2     2     3    1
     3     3     4    1
     4     4     5    1
     5     5     6    1
     6     6     7    1
     7     7     8    1
     8     8     9    2
     9     9    10    1
    10    10    11    2
    11    11    12    1
    12    12    13    2
    13    13    14    1
    14    14    15   am
    15    15    16    2
    16    15    17    1
    17    17    18    2
    18    18    19    1
    19    19    20    2
    20    20    21    1
    21    21    22    1
    22    22    23    2
    23    23    24    1
    24    24    25    1
    25    21    26    2
    26    13    27    1
    27    27    28    2
    28    28    29    1
    29     6     2    1
    30    29     8    1
    31    28    10    1
    32    26    17    1
    33    24    20    1
@<TRIPOS>SUBSTRUCTURE
     1 RES1        1 GROUP             0 ****  ****    0  
@<TRIPOS>MOLECULE
ligand_3
    29    33     1     0     0
SMALL
USER_CHARGES
****
Generated from the CSD

@<TRIPOS>ATOM
     1 C1     -12.1589   9.4478  48.6119   C.3       1 RES1   0.0000
     2 C2     -12.3900   8.5361  47.4261   C.3       1 RES1   0.0000
     3 C3     -11.1663   8.2656  46.5568   C.3       1 RES1   0.0000
     4 C4     -11.2189   6.8365  46.1299   C.3       1 RES1   0.0000
     5 C5     -12.5182   6.2957  46.6753   C.3       1 RES1   0.0000
     6 N6     -12.8234   7.1566  47.8449   N.3       1 RES1   1.0000
     7 C7     -14.2284   7.0517  48.2674   C.3       1 RES1   0.0000
     8 C8     -14.4833   7.7389  49.5704   C.2       1 RES1   0.0000
     9 N9     -14.8963   9.0244  49.6392   N.2       1 RES1   0.0000
    10 C10    -15.0900   9.3185  50.9778   C.2       1 RES1   0.0000
    11 C11    -15.4759  10.4808  51.6436   C.2       1 RES1   0.0000
    12 C12    -15.5790  10.4428  53.0293   C.2       1 RES1   0.0000
    13 C13    -15.2982   9.2631  53.7341   C.2       1 RES1   0.0000
    14 N14    -15.3768   9.2834  55.1465   N.am      1 RES1   0.0000
    15 C15    -15.1817   8.2518  56.0075   C.2       1 RES1   0.0000
    16 O16    -14.9676   7.0965  55.6459   O.2       1 RES1   0.0000
    17 C17    -15.1290   8.6169  57.4536   C.2       1 RES1   0.0000
    18 C18    -14.7178   9.9051  57.8102   C.2       1 RES1   0.0000
    19 C19    -14.6623  10.2986  59.1404   C.2       1 RES1   0.0000
    20 C20    -15.0480   9.3902  60.1097   C.2       1 RES1   0.0000
    21 C21    -15.5123   8.1097  59.7773   C.2       1 RES1   0.0000
    22 C22    -15.8364   7.5181  61.0299   C.2       1 RES1   0.0000
    23 N23    -15.5717   8.3347  62.0274   N.2       1 RES1   0.0000
    24 N24    -15.0692   9.4715  61.4626   N.pl3     1 RES1   0.0000
    25 C25    -14.5512  10.5352  62.3039   C.3       1 RES1   0.0000
    26 C26    -15.5224   7.7107  58.4431   C.2       1 RES1   0.0000
    27 C27    -14.8965   8.1111  53.0511   C.2       1 RES1   0.0000
    28 C28    -14.7878   8.1454  51.6632   C.2       1 RES1   0.0000
    29 N29    -14.3901   7.1648  50.7555   N.2       1 RES1   0.0000
@<TRIPOS>BOND
     1     2     1    1
     2     2     3    1
     3     3     4    1
     4     4     5    1
     5     5     6    1
     6     6     7    1
     7     7     8    1
     8     8     9    2
     9     9    10    1
    10    10    11    2
    11    11    12    1
    12    12    13    2
    13    13    14    1
    14    14    15   am
    15    15    16    2
    16    15    17    1
    17    17    18    2
    18    18    19    1
    19    19    20    2
    20    20    21    1
    21    21    22    1
    22    22    23    2
    23    23    24    1
    24    24    25    1
    25    21    26    2
    26    13    27    1
    27    27    28    2
    28    28    29    1
    29     6     2    1
    30    29     8    1
    31    28    10    1
    32    26    17    1
    33    24    20    1
@<TRIPOS>SUBSTRUCTURE
     1 RES1        1 GROUP             0 ****  ****    0  
@<TRIPOS>MOLECULE
ligand_4
    29    33     1     0     0
SMALL
USER_CHARGES
****
Generated from the CSD

@<TRIPOS>ATOM
     1 C1     -12.1596   9.4484  48.6120   C.3       1 RES1   0.0000
     2 C2     -12.3907   8.5368  47.4260   C.3       1 RES1   0.0000
     3 C3     -11.1671   8.2668  46.5564   C.3       1 RES1   0.0000
     4 C4     -11.2193   6.8378  46.1292   C.3       1 RES1   0.0000
     5 C5     -12.5184   6.2965  46.6747   C.3       1 RES1   0.0000
     6 N6     -12.8236   7.1571  47.8446   N.3       1 RES1   1.0000
     7 C7     -14.2284   7.0517  48.2674   C.3       1 RES1   0.0000
     8 C8     -14.4833   7.7389  49.5704   C.2       1 RES1   0.0000
     9 N9     -14.8963   9.0244  49.6392   N.2       1 RES1   0.0000
    10 C10    -15.0900   9.3185  50.9778   C.2       1 RES1   0.0000
    11 C11    -15.4759  10.4808  51.6436   C.2       1 RES1   0.0000
    12 C12    -15.5790  10.4428  53.0293   C.2       1 RES1   0.0000
    13 C13    -15.2982   9.2631  53.7341   C.2       1 RES1   0.0000
    14 N14    -15.3768   9.2834  55.1465   N.am      1 RES1   0.0000
    15 C15    -15.6732  10.3370  55.9501   C.2       1 RES1   0.0000
    16 O16    -15.8827  11.4734  55.5306   O.2       1 RES1   0.0000
    17 C17    -15.8455  10.0183  57.3979   C.2       1 RES1   0.0000
    18 C18    -15.6380  11.0296  58.3413   C.2       1 RES1   0.0000
    19 C19    -15.7964  10.7883  59.6992   C.2       1 RES1   0.0000
    20 C20    -16.1898   9.5238  60.0991   C.2       1 RES1   0.0000
    21 C21    -16.4535   8.5059  59.1718   C.2       1 RES1   0.0000
    22 C22    -16.8592   7.4005  59.9703   C.2       1 RES1   0.0000
    23 N23    -16.8202   7.6965  61.2521   N.2       1 RES1   0.0000
    24 N24    -16.3895   8.9898  61.3288   N.pl3     1 RES1   0.0000
    25 C25    -16.1108   9.5890  62.6214   C.3       1 RES1   0.0000
    26 C26    -16.2492   8.7464  57.8154   C.2       1 RES1   0.0000
    27 C27    -14.8965   8.1111  53.0511   C.2       1 RES1   0.0000
    28 C28    -14.7878   8.1454  51.6632   C.2       1 RES1   0.0000
    29 N29    -14.3901   7.1648  50.7555   N.2       1 RES1   0.0000
@<TRIPOS>BOND
     1     2     1    1
     2     2     3    1
     3     3     4    1
     4     4     5    1
     5     5     6    1
     6     6     7    1
     7     7     8    1
     8     8     9    2
     9     9    10    1
    10    10    11    2
    11    11    12    1
    12    12    13    2
    13    13    14    1
    14    14    15   am
    15    15    16    2
    16    15    17    1
    17    17    18    2
    18    18    19    1
    19    19    20    2
    20    20    21    1
    21    21    22    1
    22    22    23    2
    23    23    24    1
    24    24    25    1
    25    21    26    2
    26    13    27    1
    27    27    28    2
    28    28    29    1
    29     6     2    1
    30    29     8    1
    31    28    10    1
    32    26    17    1
    33    24    20    1
@<TRIPOS>SUBSTRUCTURE
     1 RES1        1 GROUP             0 ****  ****    0  
@<TRIPOS>MOLECULE
ligand_5
    29    33     1     0     0
SMALL
USER_CHARGES
****
Generated from the CSD

@<TRIPOS>ATOM
     1 C1     -12.1576   9.4462  48.6152   C.3       1 RES1   0.0000
     2 C2     -12.3892   8.5362  47.4281   C.3       1 RES1   0.0000
     3 C3     -11.1657   8.2661  46.5585   C.3       1 RES1   0.0000
     4 C4     -11.2191   6.8376  46.1296   C.3       1 RES1   0.0000
     5 C5     -12.5187   6.2969  46.6742   C.3       1 RES1   0.0000
     6 N6     -12.8234   7.1564  47.8450   N.3       1 RES1   1.0000
     7 C7     -14.2284   7.0517  48.2674   C.3       1 RES1   0.0000
     8 C8     -14.4833   7.7389  49.5704   C.2       1 RES1   0.0000
     9 N9     -14.8963   9.0244  49.6392   N.2       1 RES1   0.0000
    10 C10    -15.0900   9.3185  50.9778   C.2       1 RES1   0.0000
    11 C11    -15.4759  10.4808  51.6436   C.2       1 RES1   0.0000
    12 C12    -15.5790  10.4428  53.0293   C.2       1 RES1   0.0000
    13 C13    -15.2982   9.2631  53.7341   C.2       1 RES1   0.0000
    14 N14    -15.3768   9.2834  55.1465   N.am      1 RES1   0.0000
    15 C15    -15.6916  10.3324  55.9491   C.2       1 RES1   0.0000
    16 O16    -15.9667  11.4532  55.5256   O.2       1 RES1   0.0000
    17 C17    -15.7979  10.0238  57.4055   C.2       1 RES1   0.0000
    18 C18    -16.7251  10.7292  58.1792   C.2       1 RES1   0.0000
    19 C19    -16.8715  10.4725  59.5356   C.2       1 RES1   0.0000
    20 C20    -16.0920   9.4807  60.1032   C.2       1 RES1   0.0000
    21 C21    -15.1912   8.7238  59.3408   C.2       1 RES1   0.0000
    22 C22    -14.6299   7.8052  60.2709   C.2       1 RES1   0.0000
    23 N23    -15.1105   7.9960  61.4811   N.2       1 RES1   0.0000
    24 N24    -15.9890   9.0361  61.3796   N.pl3     1 RES1   0.0000
    25 C25    -16.6036   9.5894  62.5728   C.3       1 RES1   0.0000
    26 C26    -15.0210   9.0193  57.9905   C.2       1 RES1   0.0000
    27 C27    -14.8965   8.1111  53.0511   C.2       1 RES1   0.0000
    28 C28    -14.7878   8.1454  51.6632   C.2       1 RES1   0.0000
    29 N29    -14.3901   7.1648  50.7555   N.2       1 RES1   0.0000
@<TRIPOS>BOND
     1     2     1    1
     2     2     3    1
     3     3     4    1
     4     4     5    1
     5     5     6    1
     6     6     7    1
     7     7     8    1
     8     8     9    2
     9     9    10    1
    10    10    11    2
    11    11    12    1
    12    12    13    2
    13    13    14    1
    14    14    15   am
    15    15    16    2
    16    15    17    1
    17    17    18    2
    18    18    19    1
    19    19    20    2
    20    20    21    1
    21    21    22    1
    22    22    23    2
    23    23    24    1
    24    24    25    1
    25    21    26    2
    26    13    27    1
    27    27    28    2
    28    28    29    1
    29     6     2    1
    30    29     8    1
    31    28    10    1
    32    26    17    1
    33    24    20    1
@<TRIPOS>SUBSTRUCTURE
     1 RES1        1 GROUP             0 ****  ****    0  
@<TRIPOS>MOLECULE
ligand_6
    29    33     1     0     0
SMALL
USER_CHARGES
****
Generated from the CSD

@<TRIPOS>ATOM
     1 C1     -12.1588   9.4477  48.6122   C.3       1 RES1   0.0000
     2 C2     -12.3900   8.5361  47.4262   C.3       1 RES1   0.0000
     3 C3     -11.1663   8.2656  46.5569   C.3       1 RES1   0.0000
     4 C4     -11.2189   6.8365  46.1299   C.3       1 RES1   0.0000
     5 C5     -12.5183   6.2958  46.6752   C.3       1 RES1   0.0000
     6 N6     -12.8234   7.1566  47.8449   N.3       1 RES1   1.0000
     7 C7     -14.2284   7.0517  48.2674   C.3       1 RES1   0.0000
     8 C8     -14.4833   7.7389  49.5704   C.2       1 RES1   0.0000
     9 N9     -14.8963   9.0244  49.6392   N.2       1 RES1   0.0000
    10 C10    -15.0900   9.3185  50.9778   C.2       1 RES1   0.0000
    11 C11    -15.4759  10.4808  51.6436   C.2       1 RES1   0.0000
    12 C12    -15.5790  10.4428  53.0293   C.2       1 RES1   0.0000
    13 C13    -15.2982   9.2631  53.7341   C.2       1 RES1   0.0000
    14 N14    -15.3768   9.2834  55.1465   N.am      1 RES1   0.0000
    15 C15    -15.6981  10.3306  55.9488   C.2       1 RES1   0.0000
    16 O16    -15.9979  11.4447  55.5242   O.2       1 RES1   0.0000
    17 C17    -15.7793  10.0271  57.4078   C.2       1 RES1   0.0000
    18 C18    -14.9032   9.0818  57.9506   C.2       1 RES1   0.0000
    19 C19    -14.9299   8.7716  59.3035   C.2       1 RES1   0.0000
    20 C20    -15.8317   9.4399  60.1118   C.2       1 RES1   0.0000
    21 C21    -16.6864  10.4281  59.6032   C.2       1 RES1   0.0000
    22 C22    -17.4087  10.8861  60.7401   C.2       1 RES1   0.0000
    23 N23    -17.0585  10.2298  61.8257   N.2       1 RES1   0.0000
    24 N24    -16.1087   9.3306  61.4342   N.pl3     1 RES1   0.0000
    25 C25    -15.6002   8.3512  62.3776   C.3       1 RES1   0.0000
    26 C26    -16.6814  10.7000  58.2374   C.2       1 RES1   0.0000
    27 C27    -14.8965   8.1111  53.0511   C.2       1 RES1   0.0000
    28 C28    -14.7878   8.1454  51.6632   C.2       1 RES1   0.0000
    29 N29    -14.3901   7.1648  50.7555   N.2       1 RES1   0.0000
@<TRIPOS>BOND
     1     2     1    1
     2     2     3    1
     3     3     4    1
     4     4     5    1
     5     5     6    1
     6     6     7    1
     7     7     8    1
     8     8     9    2
     9     9    10    1
    10    10    11    2
    11    11    12    1
    12    12    13    2
    13    13    14    1
    14    14    15   am
    15    15    16    2
    16    15    17    1
    17    17    18    2
    18    18    19    1
    19    19    20    2
    20    20    21    1
    21    21    22    1
    22    22    23    2
    23    23    24    1
    24    24    25    1
    25    21    26    2
    26    13    27    1
    27    27    28    2
    28    28    29    1
    29     6     2    1
    30    29     8    1
    31    28    10    1
    32    26    17    1
    33    24    20    1
@<TRIPOS>SUBSTRUCTURE
     1 RES1        1 GROUP             0 ****  ****    0  
@<TRIPOS>MOLECULE
ligand_7
    29    33     1     0     0
SMALL
USER_CHARGES
****
Generated from the CSD

@<TRIPOS>ATOM
     1 C1     -12.1587   9.4474  48.6139   C.3       1 RES1   0.0000
     2 C2     -12.3901   8.5368  47.4272   C.3       1 RES1   0.0000
     3 C3     -11.1666   8.2671  46.5574   C.3       1 RES1   0.0000
     4 C4     -11.2194   6.8385  46.1291   C.3       1 RES1   0.0000
     5 C5     -12.5186   6.2972  46.6741   C.3       1 RES1   0.0000
     6 N6     -12.8235   7.1570  47.8447   N.3       1 RES1   1.0000
     7 C7     -14.2284   7.0517  48.2674   C.3       1 RES1   0.0000
     8 C8     -14.4833   7.7389  49.5704   C.2       1 RES1   0.0000
     9 N9     -14.8963   9.0244  49.6392   N.2       1 RES1   0.0000
    10 C10    -15.0900   9.3185  50.9778   C.2       1 RES1   0.0000
    11 C11    -15.4759  10.4808  51.6436   C.2       1 RES1   0.0000
    12 C12    -15.5790  10.4428  53.0293   C.2       1 RES1   0.0000
    13 C13    -15.2982   9.2631  53.7341   C.2       1 RES1   0.0000
    14 N14    -15.3768   9.2834  55.1465   N.am      1 RES1   0.0000
    15 C15    -15.6586  10.3404  55.9509   C.2       1 RES1   0.0000
    16 O16    -15.8178  11.4865  55.5357   O.2       1 RES1   0.0000
    17 C17    -15.8806  10.0168  57.3908   C.2       1 RES1   0.0000
    18 C18    -16.3411   8.7414  57.7330   C.2       1 RES1   0.0000
    19 C19    -16.5528   8.3861  59.0582   C.2       1 RES1   0.0000
    20 C20    -16.2735   9.3196  60.0401   C.2       1 RES1   0.0000
    21 C21    -15.7631  10.5876  59.7283   C.2       1 RES1   0.0000
    22 C22    -15.5804  11.2129  60.9931   C.2       1 RES1   0.0000
    23 N23    -15.9652  10.4263  61.9756   N.2       1 RES1   0.0000
    24 N24    -16.4090   9.2766  61.3881   N.pl3     1 RES1   0.0000
    25 C25    -17.0295   8.2400  62.1931   C.3       1 RES1   0.0000
    26 C26    -15.5961  10.9486  58.3936   C.2       1 RES1   0.0000
    27 C27    -14.8965   8.1111  53.0511   C.2       1 RES1   0.0000
    28 C28    -14.7878   8.1454  51.6632   C.2       1 RES1   0.0000
    29 N29    -14.3901   7.1648  50.7555   N.2       1 RES1   0.0000
@<TRIPOS>BOND
     1     2     1    1
     2     2     3    1
     3     3     4    1
     4     4     5    1
     5     5     6    1
     6     6     7    1
     7     7     8    1
     8     8     9    2
     9     9    10    1
    10    10    11    2
    11    11    12    1
    12    12    13    2
    13    13    14    1
    14    14    15   am
    15    15    16    2
    16    15    17    1
    17    17    18    2
    18    18    19    1
    19    19    20    2
    20    20    21    1
    21    21    22    1
    22    22    23    2
    23    23    24    1
    24    24    25    1
    25    21    26    2
    26    13    27    1
    27    27    28    2
    28    28    29    1
    29     6     2    1
    30    29     8    1
    31    28    10    1
    32    26    17    1
    33    24    20    1
@<TRIPOS>SUBSTRUCTURE
     1 RES1        1 GROUP             0 ****  ****    0  
@<TRIPOS>MOLECULE
ligand_8
    29    33     1     0     0
SMALL
USER_CHARGES
****
Generated from the CSD

@<TRIPOS>ATOM
     1 C1     -12.1415   9.4327  48.6113   C.3       1 RES1   0.0000
     2 C2     -12.3729   8.5164  47.4291   C.3       1 RES1   0.0000
     3 C3     -11.1463   8.2311  46.5687   C.3       1 RES1   0.0000
     4 C4     -11.2080   6.8002  46.1494   C.3       1 RES1   0.0000
     5 C5     -12.5150   6.2730  46.6898   C.3       1 RES1   0.0000
     6 N6     -12.8201   7.1428  47.8528   N.3       1 RES1   1.0000
     7 C7     -14.2284   7.0517  48.2674   C.3       1 RES1   0.0000
     8 C8     -14.4833   7.7389  49.5704   C.2       1 RES1   0.0000
     9 N9     -14.3543   7.1051  50.7576   N.2       1 RES1   0.0000
    10 C10    -14.6032   8.0402  51.7472   C.2       1 RES1   0.0000
    11 C11    -14.6446   7.9557  53.1380   C.2       1 RES1   0.0000
    12 C12    -14.9298   9.1090  53.8598   C.2       1 RES1   0.0000
    13 C13    -15.1714  10.3229  53.1999   C.2       1 RES1   0.0000
    14 N14    -15.4981  11.4609  53.9742   N.am      1 RES1   0.0000
    15 C15    -15.7384  12.7245  53.5393   C.2       1 RES1   0.0000
    16 O16    -15.6600  13.0634  52.3602   O.2       1 RES1   0.0000
    17 C17    -16.2228  13.6842  54.5746   C.2       1 RES1   0.0000
    18 C18    -16.0078  15.0524  54.3802   C.2       1 RES1   0.0000
    19 C19    -16.4485  15.9872  55.3071   C.2       1 RES1   0.0000
    20 C20    -17.1303  15.5340  56.4222   C.2       1 RES1   0.0000
    21 C21    -17.4038  14.1727  56.6166   C.2       1 RES1   0.0000
    22 C22    -18.1401  14.1333  57.8333   C.2       1 RES1   0.0000
    23 N23    -18.2787  15.3366  58.3479   N.2       1 RES1   0.0000
    24 N24    -17.6412  16.1892  57.4932   N.pl3     1 RES1   0.0000
    25 C25    -17.4948  17.5917  57.8383   C.3       1 RES1   0.0000
    26 C26    -16.9190  13.2403  55.7028   C.2       1 RES1   0.0000
    27 C27    -15.1421  10.3854  51.8034   C.2       1 RES1   0.0000
    28 C28    -14.8607   9.2318  51.0759   C.2       1 RES1   0.0000
    29 N29    -14.7966   9.0148  49.7002   N.2       1 RES1   0.0000
@<TRIPOS>BOND
     1     2     1    1
     2     2     3    1
     3     3     4    1
     4     4     5    1
     5     5     6    1
     6     6     7    1
     7     7     8    1
     8     8     9    2
     9     9    10    1
    10    10    11    2
    11    11    12    1
    12    12    13    2
    13    13    14    1
    14    14    15   am
    15    15    16    2
    16    15    17    1
    17    17    18    2
    18    18    19    1
    19    19    20    2
    20    20    21    1
    21    21    22    1
    22    22    23    2
    23    23    24    1
    24    24    25    1
    25    21    26    2
    26    13    27    1
    27    27    28    2
    28    28    29    1
    29     6     2    1
    30    29     8    1
    31    28    10    1
    32    26    17    1
    33    24    20    1
@<TRIPOS>SUBSTRUCTURE
     1 RES1        1 GROUP             0 ****  ****    0  
@<TRIPOS>MOLECULE
ligand_9
    29    33     1     0     0
SMALL
USER_CHARGES
****
Generated from the CSD

@<TRIPOS>ATOM
     1 C1     -12.1391   9.4297  48.6177   C.3       1 RES1   0.0000
     2 C2     -12.3716   8.5169  47.4329   C.3       1 RES1   0.0000
     3 C3     -11.1453   8.2327  46.5717   C.3       1 RES1   0.0000
     4 C4     -11.2084   6.8030  46.1484   C.3       1 RES1   0.0000
     5 C5     -12.5159   6.2756  46.6875   C.3       1 RES1   0.0000
     6 N6     -12.8201   7.1426  47.8529   N.3       1 RES1   1.0000
     7 C7     -14.2284   7.0517  48.2674   C.3       1 RES1   0.0000
     8 C8     -14.4833   7.7389  49.5704   C.2       1 RES1   0.0000
     9 N9     -14.3543   7.1051  50.7576   N.2       1 RES1   0.0000
    10 C10    -14.6032   8.0402  51.7472   C.2       1 RES1   0.0000
    11 C11    -14.6446   7.9557  53.1380   C.2       1 RES1   0.0000
    12 C12    -14.9298   9.1090  53.8598   C.2       1 RES1   0.0000
    13 C13    -15.1714  10.3229  53.1999   C.2       1 RES1   0.0000
    14 N14    -15.4981  11.4609  53.9742   N.am      1 RES1   0.0000
    15 C15    -15.7474  12.7225  53.5384   C.2       1 RES1   0.0000
    16 O16    -15.7179  13.0502  52.3540   O.2       1 RES1   0.0000
    17 C17    -16.1787  13.6953  54.5849   C.2       1 RES1   0.0000
    18 C18    -17.0789  14.7071  54.2362   C.2       1 RES1   0.0000
    19 C19    -17.5203  15.6301  55.1746   C.2       1 RES1   0.0000
    20 C20    -17.0657  15.5113  56.4756   C.2       1 RES1   0.0000
    21 C21    -16.2029  14.4765  56.8636   C.2       1 RES1   0.0000
    22 C22    -16.0113  14.6840  58.2580   C.2       1 RES1   0.0000
    23 N23    -16.6613  15.7489  58.6770   N.2       1 RES1   0.0000
    24 N24    -17.2883  16.2654  57.5797   N.pl3     1 RES1   0.0000
    25 C25    -17.9942  17.5306  57.6725   C.3       1 RES1   0.0000
    26 C26    -15.7322  13.5826  55.9051   C.2       1 RES1   0.0000
    27 C27    -15.1421  10.3854  51.8034   C.2       1 RES1   0.0000
    28 C28    -14.8607   9.2318  51.0759   C.2       1 RES1   0.0000
    29 N29    -14.7966   9.0148  49.7002   N.2       1 RES1   0.0000
@<TRIPOS>BOND
     1     2     1    1
     2     2     3    1
     3     3     4    1
     4     4     5    1
     5     5     6    1
     6     6     7    1
     7     7     8    1
     8     8     9    2
     9     9    10    1
    10    10    11    2
    11    11    12    1
    12    12    13    2
    13    13    14    1
    14    14    15   am
    15    15    16    2
    16    15    17    1
    17    17    18    2
    18    18    19    1
    19    19    20    2
    20    20    21    1
    21    21    22    1
    22    22    23    2
    23    23    24    1
    24    24    25    1
    25    21    26    2
    26    13    27    1
    27    27    28    2
    28    28    29    1
    29     6     2    1
    30    29     8    1
    31    28    10    1
    32    26    17    1
    33    24    20    1
@<TRIPOS>SUBSTRUCTURE
     1 RES1        1 GROUP             0 ****  ****    0  
@<TRIPOS>MOLECULE
ligand_10
    29    33     1     0     0
SMALL
USER_CHARGES
****
Generated from the CSD

@<TRIPOS>ATOM
     1 C1     -12.1415   9.4328  48.6110   C.3       1 RES1   0.0000
     2 C2     -12.3729   8.5163  47.4289   C.3       1 RES1   0.0000
     3 C3     -11.1463   8.2309  46.5686   C.3       1 RES1   0.0000
     4 C4     -11.2080   6.7999  46.1495   C.3       1 RES1   0.0000
     5 C5     -12.5149   6.2728  46.6899   C.3       1 RES1   0.0000
     6 N6     -12.8201   7.1428  47.8528   N.3       1 RES1   1.0000
     7 C7     -14.2284   7.0517  48.2674   C.3       1 RES1   0.0000
     8 C8     -14.4833   7.7389  49.5704   C.2       1 RES1   0.0000
     9 N9     -14.3543   7.1051  50.7576   N.2       1 RES1   0.0000
    10 C10    -14.6032   8.0402  51.7472   C.2       1 RES1   0.0000
    11 C11    -14.6446   7.9557  53.1380   C.2       1 RES1   0.0000
    12 C12    -14.9298   9.1090  53.8598   C.2       1 RES1   0.0000
    13 C13    -15.1714  10.3229  53.1999   C.2       1 RES1   0.0000
    14 N14    -15.4981  11.4609  53.9742   N.am      1 RES1   0.0000
    15 C15    -15.7515  12.7215  53.5381   C.2       1 RES1   0.0000
    16 O16    -15.7429  13.0445  52.3520   O.2       1 RES1   0.0000
    17 C17    -16.1605  13.6998  54.5885   C.2       1 RES1   0.0000
    18 C18    -15.6018  13.5918  55.8660   C.2       1 RES1   0.0000
    19 C19    -15.9398  14.4832  56.8751   C.2       1 RES1   0.0000
    20 C20    -16.8287  15.5012  56.5803   C.2       1 RES1   0.0000
    21 C21    -17.3647  15.6630  55.2949   C.2       1 RES1   0.0000
    22 C22    -18.1829  16.8222  55.3994   C.2       1 RES1   0.0000
    23 N23    -18.1755  17.3042  56.6240   N.2       1 RES1   0.0000
    24 N24    -17.3629  16.4811  57.3495   N.pl3     1 RES1   0.0000
    25 C25    -17.2395  16.6603  58.7849   C.3       1 RES1   0.0000
    26 C26    -17.0527  14.7375  54.3022   C.2       1 RES1   0.0000
    27 C27    -15.1421  10.3854  51.8034   C.2       1 RES1   0.0000
    28 C28    -14.8607   9.2318  51.0759   C.2       1 RES1   0.0000
    29 N29    -14.7966   9.0148  49.7002   N.2       1 RES1   0.0000
@<TRIPOS>BOND
     1     2     1    1
     2     2     3    1
     3     3     4    1
     4     4     5    1
     5     5     6    1
     6     6     7    1
     7     7     8    1
     8     8     9    2
     9     9    10    1
    10    10    11    2
    11    11    12    1
    12    12    13    2
    13    13    14    1
    14    14    15   am
    15    15    16    2
    16    15    17    1
    17    17    18    2
    18    18    19    1
    19    19    20    2
    20    20    21    1
    21    21    22    1
    22    22    23    2
    23    23    24    1
    24    24    25    1
    25    21    26    2
    26    13    27    1
    27    27    28    2
    28    28    29    1
    29     6     2    1
    30    29     8    1
    31    28    10    1
    32    26    17    1
    33    24    20    1
@<TRIPOS>SUBSTRUCTURE
     1 RES1        1 GROUP             0 ****  ****    0  
@<TRIPOS>MOLECULE
ligand_11
    29    33     1     0     0
SMALL
USER_CHARGES
****
Generated from the CSD

@<TRIPOS>ATOM
     1 C1     -12.1405   9.4316  48.6129   C.3       1 RES1   0.0000
     2 C2     -12.3722   8.5160  47.4301   C.3       1 RES1   0.0000
     3 C3     -11.1456   8.2307  46.5698   C.3       1 RES1   0.0000
     4 C4     -11.2079   6.8000  46.1496   C.3       1 RES1   0.0000
     5 C5     -12.5151   6.2731  46.6896   C.3       1 RES1   0.0000
     6 N6     -12.8200   7.1424  47.8530   N.3       1 RES1   1.0000
     7 C7     -14.2284   7.0517  48.2674   C.3       1 RES1   0.0000
     8 C8     -14.4833   7.7389  49.5704   C.2       1 RES1   0.0000
     9 N9     -14.3543   7.1051  50.7576   N.2       1 RES1   0.0000
    10 C10    -14.6032   8.0402  51.7472   C.2       1 RES1   0.0000
    11 C11    -14.6446   7.9557  53.1380   C.2       1 RES1   0.0000
    12 C12    -14.9298   9.1090  53.8598   C.2       1 RES1   0.0000
    13 C13    -15.1714  10.3229  53.1999   C.2       1 RES1   0.0000
    14 N14    -15.4981  11.4609  53.9742   N.am      1 RES1   0.0000
    15 C15    -15.7309  12.7261  53.5400   C.2       1 RES1   0.0000
    16 O16    -15.6153  13.0736  52.3665   O.2       1 RES1   0.0000
    17 C17    -16.2546  13.6761  54.5651   C.2       1 RES1   0.0000
    18 C18    -16.9814  13.1689  55.6469   C.2       1 RES1   0.0000
    19 C19    -17.4805  14.0085  56.6334   C.2       1 RES1   0.0000
    20 C20    -17.2207  15.3636  56.5344   C.2       1 RES1   0.0000
    21 C21    -16.4521  15.8926  55.4880   C.2       1 RES1   0.0000
    22 C22    -16.3888  17.2858  55.7689   C.2       1 RES1   0.0000
    23 N23    -17.0700  17.5865  56.8540   N.2       1 RES1   0.0000
    24 N24    -17.5959  16.4113  57.3083   N.pl3     1 RES1   0.0000
    25 C25    -18.5177  16.4113  58.4298   C.3       1 RES1   0.0000
    26 C26    -15.9936  15.0471  54.4807   C.2       1 RES1   0.0000
    27 C27    -15.1421  10.3854  51.8034   C.2       1 RES1   0.0000
    28 C28    -14.8607   9.2318  51.0759   C.2       1 RES1   0.0000
    29 N29    -14.7966   9.0148  49.7002   N.2       1 RES1   0.0000
@<TRIPOS>BOND
     1     2     1    1
     2     2     3    1
     3     3     4    1
     4     4     5    1
     5     5     6    1
     6     6     7    1
     7     7     8    1
     8     8     9    2
     9     9    10    1
    10    10    11    2
    11    11    12    1
    12    12    13    2
    13    13    14    1
    14    14    15   am
    15    15    16    2
    16    15    17    1
    17    17    18    2
    18    18    19    1
    19    19    20    2
    20    20    21    1
    21    21    22    1
    22    22    23    2
    23    23    24    1
    24    24    25    1
    25    21    26    2
    26    13    27    1
    27    27    28    2
    28    28    29    1
    29     6     2    1
    30    29     8    1
    31    28    10    1
    32    26    17    1
    33    24    20    1
@<TRIPOS>SUBSTRUCTURE
     1 RES1        1 GROUP             0 ****  ****    0  
@<TRIPOS>MOLECULE
ligand_12
    29    33     1     0     0
SMALL
USER_CHARGES
****
Generated from the CSD

@<TRIPOS>ATOM
     1 C1     -12.1413   9.4323  48.6131   C.3       1 RES1   0.0000
     2 C2     -12.3730   8.5170  47.4300   C.3       1 RES1   0.0000
     3 C3     -11.1465   8.2324  46.5692   C.3       1 RES1   0.0000
     4 C4     -11.2084   6.8019  46.1486   C.3       1 RES1   0.0000
     5 C5     -12.5153   6.2743  46.6888   C.3       1 RES1   0.0000
     6 N6     -12.8202   7.1431  47.8526   N.3       1 RES1   1.0000
     7 C7     -14.2284   7.0517  48.2674   C.3       1 RES1   0.0000
     8 C8     -14.4833   7.7389  49.5704   C.2       1 RES1   0.0000
     9 N9     -14.3543   7.1051  50.7576   N.2       1 RES1   0.0000
    10 C10    -14.6032   8.0402  51.7472   C.2       1 RES1   0.0000
    11 C11    -14.6446   7.9557  53.1380   C.2       1 RES1   0.0000
    12 C12    -14.9298   9.1090  53.8598   C.2       1 RES1   0.0000
    13 C13    -15.1714  10.3229  53.1999   C.2       1 RES1   0.0000
    14 N14    -15.4981  11.4609  53.9742   N.am      1 RES1   0.0000
    15 C15    -15.6415  11.5392  55.3222   C.2       1 RES1   0.0000
    16 O16    -15.5378  10.5718  56.0737   O.2       1 RES1   0.0000
    17 C17    -15.8274  12.9132  55.8745   C.2       1 RES1   0.0000
    18 C18    -16.4771  13.0647  57.1036   C.2       1 RES1   0.0000
    19 C19    -16.6652  14.3197  57.6664   C.2       1 RES1   0.0000
    20 C20    -16.1714  15.4217  56.9917   C.2       1 RES1   0.0000
    21 C21    -15.4719  15.2942  55.7834   C.2       1 RES1   0.0000
    22 C22    -15.1085  16.6277  55.4461   C.2       1 RES1   0.0000
    23 N23    -15.5613  17.4863  56.3347   N.2       1 RES1   0.0000
    24 N24    -16.2298  16.7474  57.2681   N.pl3     1 RES1   0.0000
    25 C25    -16.9680  17.4094  58.3286   C.3       1 RES1   0.0000
    26 C26    -15.3273  14.0350  55.2063   C.2       1 RES1   0.0000
    27 C27    -15.1421  10.3854  51.8034   C.2       1 RES1   0.0000
    28 C28    -14.8607   9.2318  51.0759   C.2       1 RES1   0.0000
    29 N29    -14.7966   9.0148  49.7002   N.2       1 RES1   0.0000
@<TRIPOS>BOND
     1     2     1    1
     2     2     3    1
     3     3     4    1
     4     4     5    1
     5     5     6    1
     6     6     7    1
     7     7     8    1
     8     8     9    2
     9     9    10    1
    10    10    11    2
    11    11    12    1
    12    12    13    2
    13    13    14    1
    14    14    15   am
    15    15    16    2
    16    15    17    1
    17    17    18    2
    18    18    19    1
    19    19    20    2
    20    20    21    1
    21    21    22    1
    22    22    23    2
    23    23    24    1
    24    24    25    1
    25    21    26    2
    26    13    27    1
    27    27    28    2
    28    28    29    1
    29     6     2    1
    30    29     8    1
    31    28    10    1
    32    26    17    1
    33    24    20    1
@<TRIPOS>SUBSTRUCTURE
     1 RES1        1 GROUP             0 ****  ****    0  
@<TRIPOS>MOLECULE
ligand_13
    29    33     1     0     0
SMALL
USER_CHARGES
****
Generated from the CSD

@<TRIPOS>ATOM
     1 C1     -12.1392   9.4299  48.6171   C.3       1 RES1   0.0000
     2 C2     -12.3716   8.5167  47.4326   C.3       1 RES1   0.0000
     3 C3     -11.1453   8.2324  46.5715   C.3       1 RES1   0.0000
     4 C4     -11.2083   6.8025  46.1486   C.3       1 RES1   0.0000
     5 C5     -12.5158   6.2753  46.6878   C.3       1 RES1   0.0000
     6 N6     -12.8201   7.1425  47.8530   N.3       1 RES1   1.0000
     7 C7     -14.2284   7.0517  48.2674   C.3       1 RES1   0.0000
     8 C8     -14.4833   7.7389  49.5704   C.2       1 RES1   0.0000
     9 N9     -14.3543   7.1051  50.7576   N.2       1 RES1   0.0000
    10 C10    -14.6032   8.0402  51.7472   C.2       1 RES1   0.0000
    11 C11    -14.6446   7.9557  53.1380   C.2       1 RES1   0.0000
    12 C12    -14.9298   9.1090  53.8598   C.2       1 RES1   0.0000
    13 C13    -15.1714  10.3229  53.1999   C.2       1 RES1   0.0000
    14 N14    -15.4981  11.4609  53.9742   N.am      1 RES1   0.0000
    15 C15    -15.6238  11.5433  55.3237   C.2       1 RES1   0.0000
    16 O16    -15.4555  10.5896  56.0810   O.2       1 RES1   0.0000
    17 C17    -15.8753  12.9100  55.8680   C.2       1 RES1   0.0000
    18 C18    -15.3523  13.2445  57.1212   C.2       1 RES1   0.0000
    19 C19    -15.5477  14.5057  57.6674   C.2       1 RES1   0.0000
    20 C20    -16.2552  15.4375  56.9294   C.2       1 RES1   0.0000
    21 C21    -16.7469  15.1452  55.6494   C.2       1 RES1   0.0000
    22 C22    -17.3647  16.3548  55.2262   C.2       1 RES1   0.0000
    23 N23    -17.2883  17.2821  56.1570   N.2       1 RES1   0.0000
    24 N24    -16.6277  16.7110  57.2065   N.pl3     1 RES1   0.0000
    25 C25    -16.4883  17.4324  58.4586   C.3       1 RES1   0.0000
    26 C26    -16.5829  13.8635  55.1298   C.2       1 RES1   0.0000
    27 C27    -15.1421  10.3854  51.8034   C.2       1 RES1   0.0000
    28 C28    -14.8607   9.2318  51.0759   C.2       1 RES1   0.0000
    29 N29    -14.7966   9.0148  49.7002   N.2       1 RES1   0.0000
@<TRIPOS>BOND
     1     2     1    1
     2     2     3    1
     3     3     4    1
     4     4     5    1
     5     5     6    1
     6     6     7    1
     7     7     8    1
     8     8     9    2
     9     9    10    1
    10    10    11    2
    11    11    12    1
    12    12    13    2
    13    13    14    1
    14    14    15   am
    15    15    16    2
    16    15    17    1
    17    17    18    2
    18    18    19    1
    19    19    20    2
    20    20    21    1
    21    21    22    1
    22    22    23    2
    23    23    24    1
    24    24    25    1
    25    21    26    2
    26    13    27    1
    27    27    28    2
    28    28    29    1
    29     6     2    1
    30    29     8    1
    31    28    10    1
    32    26    17    1
    33    24    20    1
@<TRIPOS>SUBSTRUCTURE
     1 RES1        1 GROUP             0 ****  ****    0  
@<TRIPOS>MOLECULE
ligand_14
    29    33     1     0     0
SMALL
USER_CHARGES
****
Generated from the CSD

@<TRIPOS>ATOM
     1 C1     -12.1414   9.4327  48.6111   C.3       1 RES1   0.0000
     2 C2     -12.3729   8.5162  47.4290   C.3       1 RES1   0.0000
     3 C3     -11.1462   8.2308  46.5687   C.3       1 RES1   0.0000
     4 C4     -11.2079   6.7998  46.1495   C.3       1 RES1   0.0000
     5 C5     -12.5149   6.2728  46.6899   C.3       1 RES1   0.0000
     6 N6     -12.8201   7.1427  47.8528   N.3       1 RES1   1.0000
     7 C7     -14.2284   7.0517  48.2674   C.3       1 RES1   0.0000
     8 C8     -14.4833   7.7389  49.5704   C.2       1 RES1   0.0000
     9 N9     -14.3543   7.1051  50.7576   N.2       1 RES1   0.0000
    10 C10    -14.6032   8.0402  51.7472   C.2       1 RES1   0.0000
    11 C11    -14.6446   7.9557  53.1380   C.2       1 RES1   0.0000
    12 C12    -14.9298   9.1090  53.8598   C.2       1 RES1   0.0000
    13 C13    -15.1714  10.3229  53.1999   C.2       1 RES1   0.0000
    14 N14    -15.4981  11.4609  53.9742   N.am      1 RES1   0.0000
    15 C15    -15.6170  11.5449  55.3242   C.2       1 RES1   0.0000
    16 O16    -15.4238  10.5974  56.0834   O.2       1 RES1   0.0000
    17 C17    -15.8941  12.9076  55.8660   C.2       1 RES1   0.0000
    18 C18    -16.6947  13.7802  55.1219   C.2       1 RES1   0.0000
    19 C19    -16.9919  15.0542  55.5862   C.2       1 RES1   0.0000
    20 C20    -16.4953  15.4351  56.8199   C.2       1 RES1   0.0000
    21 C21    -15.7327  14.5626  57.6091   C.2       1 RES1   0.0000
    22 C22    -15.4581  15.3073  58.7899   C.2       1 RES1   0.0000
    23 N23    -15.9703  16.5176  58.7221   N.2       1 RES1   0.0000
    24 N24    -16.5861  16.6003  57.5064   N.pl3     1 RES1   0.0000
    25 C25    -17.1468  17.8622  57.0584   C.3       1 RES1   0.0000
    26 C26    -15.4041  13.3030  57.1144   C.2       1 RES1   0.0000
    27 C27    -15.1421  10.3854  51.8034   C.2       1 RES1   0.0000
    28 C28    -14.8607   9.2318  51.0759   C.2       1 RES1   0.0000
    29 N29    -14.7966   9.0148  49.7002   N.2       1 RES1   0.0000
@<TRIPOS>BOND
     1     2     1    1
     2     2     3    1
     3     3     4    1
     4     4     5    1
     5     5     6    1
     6     6     7    1
     7     7     8    1
     8     8     9    2
     9     9    10    1
    10    10    11    2
    11    11    12    1
    12    12    13    2
    13    13    14    1
    14    14    15   am
    15    15    16    2
    16    15    17    1
    17    17    18    2
    18    18    19    1
    19    19    20    2
    20    20    21    1
    21    21    22    1
    22    22    23    2
    23    23    24    1
    24    24    25    1
    25    21    26    2
    26    13    27    1
    27    27    28    2
    28    28    29    1
    29     6     2    1
    30    29     8    1
    31    28    10    1
    32    26    17    1
    33    24    20    1
@<TRIPOS>SUBSTRUCTURE
     1 RES1        1 GROUP             0 ****  ****    0  
@<TRIPOS>MOLECULE
ligand_15
    29    33     1     0     0
SMALL
USER_CHARGES
****
Generated from the CSD

@<TRIPOS>ATOM
     1 C1     -12.1397   9.4308  48.6135   C.3       1 RES1   0.0000
     2 C2     -12.3715   8.5155  47.4306   C.3       1 RES1   0.0000
     3 C3     -11.1448   8.2298  46.5705   C.3       1 RES1   0.0000
     4 C4     -11.2076   6.7991  46.1501   C.3       1 RES1   0.0000
     5 C5     -12.5151   6.2727  46.6898   C.3       1 RES1   0.0000
     6 N6     -12.8199   7.1420  47.8533   N.3       1 RES1   1.0000
     7 C7     -14.2284   7.0517  48.2674   C.3       1 RES1   0.0000
     8 C8     -14.4833   7.7389  49.5704   C.2       1 RES1   0.0000
     9 N9     -14.3543   7.1051  50.7576   N.2       1 RES1   0.0000
    10 C10    -14.6032   8.0402  51.7472   C.2       1 RES1   0.0000
    11 C11    -14.6446   7.9557  53.1380   C.2       1 RES1   0.0000
    12 C12    -14.9298   9.1090  53.8598   C.2       1 RES1   0.0000
    13 C13    -15.1714  10.3229  53.1999   C.2       1 RES1   0.0000
    14 N14    -15.4981  11.4609  53.9742   N.am      1 RES1   0.0000
    15 C15    -15.6555  11.5361  55.3208   C.2       1 RES1   0.0000
    16 O16    -15.6013  10.5604  56.0666   O.2       1 RES1   0.0000
    17 C17    -15.7919  12.9130  55.8805   C.2       1 RES1   0.0000
    18 C18    -15.2184  13.9836  55.1871   C.2       1 RES1   0.0000
    19 C19    -15.3264  15.2848  55.6588   C.2       1 RES1   0.0000
    20 C20    -16.0387  15.5028  56.8244   C.2       1 RES1   0.0000
    21 C21    -16.6664  14.4546  57.5121   C.2       1 RES1   0.0000
    22 C22    -17.3103  15.0911  58.6095   C.2       1 RES1   0.0000
    23 N23    -17.0790  16.3866  58.6141   N.2       1 RES1   0.0000
    24 N24    -16.2827  16.6325  57.5326   N.pl3     1 RES1   0.0000
    25 C25    -15.7332  17.9592  57.3195   C.3       1 RES1   0.0000
    26 C26    -16.5148  13.1482  57.0539   C.2       1 RES1   0.0000
    27 C27    -15.1421  10.3854  51.8034   C.2       1 RES1   0.0000
    28 C28    -14.8607   9.2318  51.0759   C.2       1 RES1   0.0000
    29 N29    -14.7966   9.0148  49.7002   N.2       1 RES1   0.0000
@<TRIPOS>BOND
     1     2     1    1
     2     2     3    1
     3     3     4    1
     4     4     5    1
     5     5     6    1
     6     6     7    1
     7     7     8    1
     8     8     9    2
     9     9    10    1
    10    10    11    2
    11    11    12    1
    12    12    13    2
    13    13    14    1
    14    14    15   am
    15    15    16    2
    16    15    17    1
    17    17    18    2
    18    18    19    1
    19    19    20    2
    20    20    21    1
    21    21    22    1
    22    22    23    2
    23    23    24    1
    24    24    25    1
    25    21    26    2
    26    13    27    1
    27    27    28    2
    28    28    29    1
    29     6     2    1
    30    29     8    1
    31    28    10    1
    32    26    17    1
    33    24    20    1
@<TRIPOS>SUBSTRUCTURE
     1 RES1        1 GROUP             0 ****  ****    0  
@<TRIPOS>MOLECULE
ligand_16
    29    33     1     0     0
SMALL
USER_CHARGES
****
Generated from the CSD

@<TRIPOS>ATOM
     1 C1     -12.1878   9.5128  48.5287   C.3       1 RES1   0.0000
     2 C2     -12.4236   8.5780  47.3618   C.3       1 RES1   0.0000
     3 C3     -11.1718   8.3486  46.5164   C.3       1 RES1   0.0000
     4 C4     -10.5438   7.1020  47.1118   C.3       1 RES1   0.0000
     5 C5     -11.7363   6.2280  47.3768   C.3       1 RES1   0.0000
     6 N6     -12.7989   7.1864  47.8834   N.3       1 RES1   1.0000
     7 C7     -14.1625   6.7780  47.5125   C.3       1 RES1   0.0000
     8 C8     -15.2082   7.5649  48.2351   C.2       1 RES1   0.0000
     9 N9     -14.8958   8.5234  49.1359   N.2       1 RES1   0.0000
    10 C10    -16.0868   9.0846  49.5625   C.2       1 RES1   0.0000
    11 C11    -16.3827  10.0788  50.4938   C.2       1 RES1   0.0000
    12 C12    -17.7157  10.4190  50.6931   C.2       1 RES1   0.0000
    13 C13    -18.7325   9.7733  49.9745   C.2       1 RES1   0.0000
    14 N14    -20.0770  10.1240  50.2407   N.am      1 RES1   0.0000
    15 C15    -21.1978   9.6461  49.6414   C.2       1 RES1   0.0000
    16 O16    -21.1809   8.8355  48.7174   O.2       1 RES1   0.0000
    17 C17    -22.4908  10.0801  50.2473   C.2       1 RES1   0.0000
    18 C18    -23.6406  10.0880  49.4511   C.2       1 RES1   0.0000
    19 C19    -24.8700  10.4720  49.9692   C.2       1 RES1   0.0000
    20 C20    -24.9373  10.8257  51.3048   C.2       1 RES1   0.0000
    21 C21    -23.8107  10.7781  52.1379   C.2       1 RES1   0.0000
    22 C22    -24.3015  11.1707  53.4143   C.2       1 RES1   0.0000
    23 N23    -25.5849  11.4581  53.3656   N.2       1 RES1   0.0000
    24 N24    -25.9664  11.2668  52.0687   N.pl3     1 RES1   0.0000
    25 C25    -27.3079  11.6241  51.6441   C.3       1 RES1   0.0000
    26 C26    -22.5742  10.4336  51.5975   C.2       1 RES1   0.0000
    27 C27    -18.4184   8.7667  49.0563   C.2       1 RES1   0.0000
    28 C28    -17.0848   8.4196  48.8562   C.2       1 RES1   0.0000
    29 N29    -16.5082   7.4512  48.0354   N.2       1 RES1   0.0000
@<TRIPOS>BOND
     1     2     1    1
     2     2     3    1
     3     3     4    1
     4     4     5    1
     5     5     6    1
     6     6     7    1
     7     7     8    1
     8     8     9    2
     9     9    10    1
    10    10    11    2
    11    11    12    1
    12    12    13    2
    13    13    14    1
    14    14    15   am
    15    15    16    2
    16    15    17    1
    17    17    18    2
    18    18    19    1
    19    19    20    2
    20    20    21    1
    21    21    22    1
    22    22    23    2
    23    23    24    1
    24    24    25    1
    25    21    26    2
    26    13    27    1
    27    27    28    2
    28    28    29    1
    29     6     2    1
    30    29     8    1
    31    28    10    1
    32    26    17    1
    33    24    20    1
@<TRIPOS>SUBSTRUCTURE
     1 RES1        1 GROUP             0 ****  ****    0  
@<TRIPOS>MOLECULE
ligand_17
    29    33     1     0     0
SMALL
USER_CHARGES
****
Generated from the CSD

@<TRIPOS>ATOM
     1 C1     -12.1886   9.5132  48.5292   C.3       1 RES1   0.0000
     2 C2     -12.4247   8.5790  47.3619   C.3       1 RES1   0.0000
     3 C3     -11.1731   8.3508  46.5156   C.3       1 RES1   0.0000
     4 C4     -10.5442   7.1041  47.1100   C.3       1 RES1   0.0000
     5 C5     -11.7361   6.2293  47.3750   C.3       1 RES1   0.0000
     6 N6     -12.7989   7.1869  47.8829   N.3       1 RES1   1.0000
     7 C7     -14.1625   6.7780  47.5125   C.3       1 RES1   0.0000
     8 C8     -15.2082   7.5649  48.2351   C.2       1 RES1   0.0000
     9 N9     -14.8958   8.5234  49.1359   N.2       1 RES1   0.0000
    10 C10    -16.0868   9.0846  49.5625   C.2       1 RES1   0.0000
    11 C11    -16.3827  10.0788  50.4938   C.2       1 RES1   0.0000
    12 C12    -17.7157  10.4190  50.6931   C.2       1 RES1   0.0000
    13 C13    -18.7325   9.7733  49.9745   C.2       1 RES1   0.0000
    14 N14    -20.0770  10.1240  50.2407   N.am      1 RES1   0.0000
    15 C15    -21.1984   9.6380  49.6491   C.2       1 RES1   0.0000
    16 O16    -21.1839   8.7883  48.7608   O.2       1 RES1   0.0000
    17 C17    -22.4912  10.1171  50.2206   C.2       1 RES1   0.0000
    18 C18    -23.5913   9.2537  50.2190   C.2       1 RES1   0.0000
    19 C19    -24.8130   9.6464  50.7488   C.2       1 RES1   0.0000
    20 C20    -24.9116  10.9099  51.3033   C.2       1 RES1   0.0000
    21 C21    -23.8113  11.7767  51.3637   C.2       1 RES1   0.0000
    22 C22    -24.3105  12.9313  52.0283   C.2       1 RES1   0.0000
    23 N23    -25.5876  12.8016  52.3185   N.2       1 RES1   0.0000
    24 N24    -25.9580  11.5722  51.8544   N.pl3     1 RES1   0.0000
    25 C25    -27.3509  11.1658  51.9004   C.3       1 RES1   0.0000
    26 C26    -22.6028  11.3891  50.7902   C.2       1 RES1   0.0000
    27 C27    -18.4184   8.7667  49.0563   C.2       1 RES1   0.0000
    28 C28    -17.0848   8.4196  48.8562   C.2       1 RES1   0.0000
    29 N29    -16.5082   7.4512  48.0354   N.2       1 RES1   0.0000
@<TRIPOS>BOND
     1     2     1    1
     2     2     3    1
     3     3     4    1
     4     4     5    1
     5     5     6    1
     6     6     7    1
     7     7     8    1
     8     8     9    2
     9     9    10    1
    10    10    11    2
    11    11    12    1
    12    12    13    2
    13    13    14    1
    14    14    15   am
    15    15    16    2
    16    15    17    1
    17    17    18    2
    18    18    19    1
    19    19    20    2
    20    20    21    1
    21    21    22    1
    22    22    23    2
    23    23    24    1
    24    24    25    1
    25    21    26    2
    26    13    27    1
    27    27    28    2
    28    28    29    1
    29     6     2    1
    30    29     8    1
    31    28    10    1
    32    26    17    1
    33    24    20    1
@<TRIPOS>SUBSTRUCTURE
     1 RES1        1 GROUP             0 ****  ****    0  
@<TRIPOS>MOLECULE
ligand_18
    29    33     1     0     0
SMALL
USER_CHARGES
****
Generated from the CSD

@<TRIPOS>ATOM
     1 C1     -12.1882   9.5138  48.5269   C.3       1 RES1   0.0000
     2 C2     -12.4241   8.5784  47.3605   C.3       1 RES1   0.0000
     3 C3     -11.1725   8.3490  46.5148   C.3       1 RES1   0.0000
     4 C4     -10.5440   7.1028  47.1106   C.3       1 RES1   0.0000
     5 C5     -11.7362   6.2285  47.3763   C.3       1 RES1   0.0000
     6 N6     -12.7989   7.1869  47.8829   N.3       1 RES1   1.0000
     7 C7     -14.1625   6.7780  47.5125   C.3       1 RES1   0.0000
     8 C8     -15.2082   7.5649  48.2351   C.2       1 RES1   0.0000
     9 N9     -14.8958   8.5234  49.1359   N.2       1 RES1   0.0000
    10 C10    -16.0868   9.0846  49.5625   C.2       1 RES1   0.0000
    11 C11    -16.3827  10.0788  50.4938   C.2       1 RES1   0.0000
    12 C12    -17.7157  10.4190  50.6931   C.2       1 RES1   0.0000
    13 C13    -18.7325   9.7733  49.9745   C.2       1 RES1   0.0000
    14 N14    -20.0770  10.1240  50.2407   N.am      1 RES1   0.0000
    15 C15    -21.1985   9.6361  49.6509   C.2       1 RES1   0.0000
    16 O16    -21.1851   8.7732  48.7754   O.2       1 RES1   0.0000
    17 C17    -22.4910  10.1317  50.2088   C.2       1 RES1   0.0000
    18 C18    -22.5646  11.4480  50.6753   C.2       1 RES1   0.0000
    19 C19    -23.7461  11.9613  51.1930   C.2       1 RES1   0.0000
    20 C20    -24.8620  11.1442  51.2150   C.2       1 RES1   0.0000
    21 C21    -24.8295   9.8377  50.7074   C.2       1 RES1   0.0000
    22 C22    -26.1594   9.3620  50.8779   C.2       1 RES1   0.0000
    23 N23    -26.9208  10.2667  51.4557   N.2       1 RES1   0.0000
    24 N24    -26.1186  11.3484  51.6803   N.pl3     1 RES1   0.0000
    25 C25    -26.6224  12.4856  52.4291   C.3       1 RES1   0.0000
    26 C26    -23.6283   9.3186  50.2309   C.2       1 RES1   0.0000
    27 C27    -18.4184   8.7667  49.0563   C.2       1 RES1   0.0000
    28 C28    -17.0848   8.4196  48.8562   C.2       1 RES1   0.0000
    29 N29    -16.5082   7.4512  48.0354   N.2       1 RES1   0.0000
@<TRIPOS>BOND
     1     2     1    1
     2     2     3    1
     3     3     4    1
     4     4     5    1
     5     5     6    1
     6     6     7    1
     7     7     8    1
     8     8     9    2
     9     9    10    1
    10    10    11    2
    11    11    12    1
    12    12    13    2
    13    13    14    1
    14    14    15   am
    15    15    16    2
    16    15    17    1
    17    17    18    2
    18    18    19    1
    19    19    20    2
    20    20    21    1
    21    21    22    1
    22    22    23    2
    23    23    24    1
    24    24    25    1
    25    21    26    2
    26    13    27    1
    27    27    28    2
    28    28    29    1
    29     6     2    1
    30    29     8    1
    31    28    10    1
    32    26    17    1
    33    24    20    1
@<TRIPOS>SUBSTRUCTURE
     1 RES1        1 GROUP             0 ****  ****    0  
@<TRIPOS>MOLECULE
ligand_19
    29    33     1     0     0
SMALL
USER_CHARGES
****
Generated from the CSD

@<TRIPOS>ATOM
     1 C1     -12.1883   9.5129  48.5292   C.3       1 RES1   0.0000
     2 C2     -12.4242   8.5786  47.3620   C.3       1 RES1   0.0000
     3 C3     -11.1725   8.3499  46.5161   C.3       1 RES1   0.0000
     4 C4     -10.5440   7.1032  47.1108   C.3       1 RES1   0.0000
     5 C5     -11.7362   6.2287  47.3757   C.3       1 RES1   0.0000
     6 N6     -12.7989   7.1866  47.8832   N.3       1 RES1   1.0000
     7 C7     -14.1625   6.7780  47.5125   C.3       1 RES1   0.0000
     8 C8     -15.2082   7.5649  48.2351   C.2       1 RES1   0.0000
     9 N9     -14.8958   8.5234  49.1359   N.2       1 RES1   0.0000
    10 C10    -16.0868   9.0846  49.5625   C.2       1 RES1   0.0000
    11 C11    -16.3827  10.0788  50.4938   C.2       1 RES1   0.0000
    12 C12    -17.7157  10.4190  50.6931   C.2       1 RES1   0.0000
    13 C13    -18.7325   9.7733  49.9745   C.2       1 RES1   0.0000
    14 N14    -20.0770  10.1240  50.2407   N.am      1 RES1   0.0000
    15 C15    -21.1974   9.6507  49.6372   C.2       1 RES1   0.0000
    16 O16    -21.1794   8.8677  48.6896   O.2       1 RES1   0.0000
    17 C17    -22.4900  10.0513  50.2666   C.2       1 RES1   0.0000
    18 C18    -22.5115  10.3522  51.6322   C.2       1 RES1   0.0000
    19 C19    -23.6852  10.7410  52.2634   C.2       1 RES1   0.0000
    20 C20    -24.8350  10.8480  51.5017   C.2       1 RES1   0.0000
    21 C21    -24.8309  10.6016  50.1215   C.2       1 RES1   0.0000
    22 C22    -26.1709  10.8547  49.7161   C.2       1 RES1   0.0000
    23 N23    -26.9253  11.1910  50.7407   N.2       1 RES1   0.0000
    24 N24    -26.1099  11.1651  51.8354   N.pl3     1 RES1   0.0000
    25 C25    -26.6652  11.3642  53.1619   C.3       1 RES1   0.0000
    26 C26    -23.6580  10.1700  49.5072   C.2       1 RES1   0.0000
    27 C27    -18.4184   8.7667  49.0563   C.2       1 RES1   0.0000
    28 C28    -17.0848   8.4196  48.8562   C.2       1 RES1   0.0000
    29 N29    -16.5082   7.4512  48.0354   N.2       1 RES1   0.0000
@<TRIPOS>BOND
     1     2     1    1
     2     2     3    1
     3     3     4    1
     4     4     5    1
     5     5     6    1
     6     6     7    1
     7     7     8    1
     8     8     9    2
     9     9    10    1
    10    10    11    2
    11    11    12    1
    12    12    13    2
    13    13    14    1
    14    14    15   am
    15    15    16    2
    16    15    17    1
    17    17    18    2
    18    18    19    1
    19    19    20    2
    20    20    21    1
    21    21    22    1
    22    22    23    2
    23    23    24    1
    24    24    25    1
    25    21    26    2
    26    13    27    1
    27    27    28    2
    28    28    29    1
    29     6     2    1
    30    29     8    1
    31    28    10    1
    32    26    17    1
    33    24    20    1
@<TRIPOS>SUBSTRUCTURE
     1 RES1        1 GROUP             0 ****  ****    0  
@<TRIPOS>MOLECULE
ligand_20
    29    33     1     0     0
SMALL
USER_CHARGES
****
Generated from the CSD

@<TRIPOS>ATOM
     1 C1     -12.1876   9.5129  48.5281   C.3       1 RES1   0.0000
     2 C2     -12.4234   8.5778  47.3615   C.3       1 RES1   0.0000
     3 C3     -11.1715   8.3480  46.5163   C.3       1 RES1   0.0000
     4 C4     -10.5437   7.1015  47.1122   C.3       1 RES1   0.0000
     5 C5     -11.7364   6.2276  47.3772   C.3       1 RES1   0.0000
     6 N6     -12.7989   7.1864  47.8835   N.3       1 RES1   1.0000
     7 C7     -14.1625   6.7780  47.5125   C.3       1 RES1   0.0000
     8 C8     -15.2082   7.5649  48.2351   C.2       1 RES1   0.0000
     9 N9     -14.8958   8.5234  49.1359   N.2       1 RES1   0.0000
    10 C10    -16.0868   9.0846  49.5625   C.2       1 RES1   0.0000
    11 C11    -16.3827  10.0788  50.4938   C.2       1 RES1   0.0000
    12 C12    -17.7157  10.4190  50.6931   C.2       1 RES1   0.0000
    13 C13    -18.7325   9.7733  49.9745   C.2       1 RES1   0.0000
    14 N14    -20.0770  10.1240  50.2407   N.am      1 RES1   0.0000
    15 C15    -20.5411  11.0162  51.1530   C.2       1 RES1   0.0000
    16 O16    -19.8151  11.6342  51.9290   O.2       1 RES1   0.0000
    17 C17    -22.0050  11.3008  51.0931   C.2       1 RES1   0.0000
    18 C18    -22.6507  11.7625  52.2445   C.2       1 RES1   0.0000
    19 C19    -24.0083  12.0528  52.2389   C.2       1 RES1   0.0000
    20 C20    -24.7073  11.8971  51.0554   C.2       1 RES1   0.0000
    21 C21    -24.0748  11.4845  49.8741   C.2       1 RES1   0.0000
    22 C22    -25.1123  11.4888  48.9007   C.2       1 RES1   0.0000
    23 N23    -26.2650  11.8371  49.4318   N.2       1 RES1   0.0000
    24 N24    -26.0183  12.0655  50.7550   N.pl3     1 RES1   0.0000
    25 C25    -27.1161  12.3454  51.6628   C.3       1 RES1   0.0000
    26 C26    -22.7221  11.1541  49.9019   C.2       1 RES1   0.0000
    27 C27    -18.4184   8.7667  49.0563   C.2       1 RES1   0.0000
    28 C28    -17.0848   8.4196  48.8562   C.2       1 RES1   0.0000
    29 N29    -16.5082   7.4512  48.0354   N.2       1 RES1   0.0000
@<TRIPOS>BOND
     1     2     1    1
     2     2     3    1
     3     3     4    1
     4     4     5    1
     5     5     6    1
     6     6     7    1
     7     7     8    1
     8     8     9    2
     9     9    10    1
    10    10    11    2
    11    11    12    1
    12    12    13    2
    13    13    14    1
    14    14    15   am
    15    15    16    2
    16    15    17    1
    17    17    18    2
    18    18    19    1
    19    19    20    2
    20    20    21    1
    21    21    22    1
    22    22    23    2
    23    23    24    1
    24    24    25    1
    25    21    26    2
    26    13    27    1
    27    27    28    2
    28    28    29    1
    29     6     2    1
    30    29     8    1
    31    28    10    1
    32    26    17    1
    33    24    20    1
@<TRIPOS>SUBSTRUCTURE
     1 RES1        1 GROUP             0 ****  ****    0  
@<TRIPOS>MOLECULE
ligand_21
    29    33     1     0     0
SMALL
USER_CHARGES
****
Generated from the CSD

@<TRIPOS>ATOM
     1 C1     -12.1900   9.5148  48.5276   C.3       1 RES1   0.0000
     2 C2     -12.4263   8.5805  47.3604   C.3       1 RES1   0.0000
     3 C3     -11.1754   8.3534  46.5130   C.3       1 RES1   0.0000
     4 C4     -10.5448   7.1072  47.1066   C.3       1 RES1   0.0000
     5 C5     -11.7358   6.2314  47.3727   C.3       1 RES1   0.0000
     6 N6     -12.7989   7.1880  47.8817   N.3       1 RES1   1.0000
     7 C7     -14.1625   6.7780  47.5125   C.3       1 RES1   0.0000
     8 C8     -15.2082   7.5649  48.2351   C.2       1 RES1   0.0000
     9 N9     -14.8958   8.5234  49.1359   N.2       1 RES1   0.0000
    10 C10    -16.0868   9.0846  49.5625   C.2       1 RES1   0.0000
    11 C11    -16.3827  10.0788  50.4938   C.2       1 RES1   0.0000
    12 C12    -17.7157  10.4190  50.6931   C.2       1 RES1   0.0000
    13 C13    -18.7325   9.7733  49.9745   C.2       1 RES1   0.0000
    14 N14    -20.0770  10.1240  50.2407   N.am      1 RES1   0.0000
    15 C15    -20.5400  11.0317  51.1381   C.2       1 RES1   0.0000
    16 O16    -19.8095  11.7009  51.8659   O.2       1 RES1   0.0000
    17 C17    -22.0142  11.2644  51.1213   C.2       1 RES1   0.0000
    18 C18    -22.4998  12.5404  51.4244   C.2       1 RES1   0.0000
    19 C19    -23.8611  12.8123  51.4117   C.2       1 RES1   0.0000
    20 C20    -24.7302  11.7928  51.0670   C.2       1 RES1   0.0000
    21 C21    -24.2675  10.5185  50.7095   C.2       1 RES1   0.0000
    22 C22    -25.4494   9.7919  50.3943   C.2       1 RES1   0.0000
    23 N23    -26.5252  10.5298  50.5681   N.2       1 RES1   0.0000
    24 N24    -26.0833  11.7470  51.0004   N.pl3     1 RES1   0.0000
    25 C25    -27.0350  12.7628  51.4127   C.3       1 RES1   0.0000
    26 C26    -22.9033  10.2448  50.7682   C.2       1 RES1   0.0000
    27 C27    -18.4184   8.7667  49.0563   C.2       1 RES1   0.0000
    28 C28    -17.0848   8.4196  48.8562   C.2       1 RES1   0.0000
    29 N29    -16.5082   7.4512  48.0354   N.2       1 RES1   0.0000
@<TRIPOS>BOND
     1     2     1    1
     2     2     3    1
     3     3     4    1
     4     4     5    1
     5     5     6    1
     6     6     7    1
     7     7     8    1
     8     8     9    2
     9     9    10    1
    10    10    11    2
    11    11    12    1
    12    12    13    2
    13    13    14    1
    14    14    15   am
    15    15    16    2
    16    15    17    1
    17    17    18    2
    18    18    19    1
    19    19    20    2
    20    20    21    1
    21    21    22    1
    22    22    23    2
    23    23    24    1
    24    24    25    1
    25    21    26    2
    26    13    27    1
    27    27    28    2
    28    28    29    1
    29     6     2    1
    30    29     8    1
    31    28    10    1
    32    26    17    1
    33    24    20    1
@<TRIPOS>SUBSTRUCTURE
     1 RES1        1 GROUP             0 ****  ****    0  
@<TRIPOS>MOLECULE
ligand_22
    29    33     1     0     0
SMALL
USER_CHARGES
****
Generated from the CSD

@<TRIPOS>ATOM
     1 C1     -12.1884   9.5140  48.5264   C.3       1 RES1   0.0000
     2 C2     -12.4243   8.5786  47.3602   C.3       1 RES1   0.0000
     3 C3     -11.1727   8.3491  46.5144   C.3       1 RES1   0.0000
     4 C4     -10.5440   7.1030  47.1103   C.3       1 RES1   0.0000
     5 C5     -11.7362   6.2287  47.3761   C.3       1 RES1   0.0000
     6 N6     -12.7989   7.1871  47.8827   N.3       1 RES1   1.0000
     7 C7     -14.1625   6.7780  47.5125   C.3       1 RES1   0.0000
     8 C8     -15.2082   7.5649  48.2351   C.2       1 RES1   0.0000
     9 N9     -14.8958   8.5234  49.1359   N.2       1 RES1   0.0000
    10 C10    -16.0868   9.0846  49.5625   C.2       1 RES1   0.0000
    11 C11    -16.3827  10.0788  50.4938   C.2       1 RES1   0.0000
    12 C12    -17.7157  10.4190  50.6931   C.2       1 RES1   0.0000
    13 C13    -18.7325   9.7733  49.9745   C.2       1 RES1   0.0000
    14 N14    -20.0770  10.1240  50.2407   N.am      1 RES1   0.0000
    15 C15    -20.5397  11.0375  51.1324   C.2       1 RES1   0.0000
    16 O16    -19.8081  11.7266  51.8403   O.2       1 RES1   0.0000
    17 C17    -22.0170  11.2498  51.1338   C.2       1 RES1   0.0000
    18 C18    -22.8558  10.1611  50.8754   C.2       1 RES1   0.0000
    19 C19    -24.2368  10.3027  50.8764   C.2       1 RES1   0.0000
    20 C20    -24.7683  11.5470  51.1641   C.2       1 RES1   0.0000
    21 C21    -23.9520  12.6433  51.4764   C.2       1 RES1   0.0000
    22 C22    -24.8685  13.6987  51.7414   C.2       1 RES1   0.0000
    23 N23    -26.1133  13.3032  51.5801   N.2       1 RES1   0.0000
    24 N24    -26.0480  11.9918  51.2058   N.pl3     1 RES1   0.0000
    25 C25    -27.2552  11.2838  50.8197   C.3       1 RES1   0.0000
    26 C26    -22.5675  12.5006  51.4296   C.2       1 RES1   0.0000
    27 C27    -18.4184   8.7667  49.0563   C.2       1 RES1   0.0000
    28 C28    -17.0848   8.4196  48.8562   C.2       1 RES1   0.0000
    29 N29    -16.5082   7.4512  48.0354   N.2       1 RES1   0.0000
@<TRIPOS>BOND
     1     2     1    1
     2     2     3    1
     3     3     4    1
     4     4     5    1
     5     5     6    1
     6     6     7    1
     7     7     8    1
     8     8     9    2
     9     9    10    1
    10    10    11    2
    11    11    12    1
    12    12    13    2
    13    13    14    1
    14    14    15   am
    15    15    16    2
    16    15    17    1
    17    17    18    2
    18    18    19    1
    19    19    20    2
    20    20    21    1
    21    21    22    1
    22    22    23    2
    23    23    24    1
    24    24    25    1
    25    21    26    2
    26    13    27    1
    27    27    28    2
    28    28    29    1
    29     6     2    1
    30    29     8    1
    31    28    10    1
    32    26    17    1
    33    24    20    1
@<TRIPOS>SUBSTRUCTURE
     1 RES1        1 GROUP             0 ****  ****    0  
@<TRIPOS>MOLECULE
ligand_23
    29    33     1     0     0
SMALL
USER_CHARGES
****
Generated from the CSD

@<TRIPOS>ATOM
     1 C1     -12.1884   9.5138  48.5271   C.3       1 RES1   0.0000
     2 C2     -12.4244   8.5787  47.3606   C.3       1 RES1   0.0000
     3 C3     -11.1728   8.3495  46.5147   C.3       1 RES1   0.0000
     4 C4     -10.5441   7.1033  47.1102   C.3       1 RES1   0.0000
     5 C5     -11.7362   6.2289  47.3759   C.3       1 RES1   0.0000
     6 N6     -12.7989   7.1870  47.8828   N.3       1 RES1   1.0000
     7 C7     -14.1625   6.7780  47.5125   C.3       1 RES1   0.0000
     8 C8     -15.2082   7.5649  48.2351   C.2       1 RES1   0.0000
     9 N9     -14.8958   8.5234  49.1359   N.2       1 RES1   0.0000
    10 C10    -16.0868   9.0846  49.5625   C.2       1 RES1   0.0000
    11 C11    -16.3827  10.0788  50.4938   C.2       1 RES1   0.0000
    12 C12    -17.7157  10.4190  50.6931   C.2       1 RES1   0.0000
    13 C13    -18.7325   9.7733  49.9745   C.2       1 RES1   0.0000
    14 N14    -20.0770  10.1240  50.2407   N.am      1 RES1   0.0000
    15 C15    -20.5418  11.0073  51.1612   C.2       1 RES1   0.0000
    16 O16    -19.8206  11.5894  51.9688   O.2       1 RES1   0.0000
    17 C17    -21.9962  11.3303  51.0715   C.2       1 RES1   0.0000
    18 C18    -22.6388  11.2132  49.8349   C.2       1 RES1   0.0000
    19 C19    -23.9924  11.4906  49.7001   C.2       1 RES1   0.0000
    20 C20    -24.7007  11.8645  50.8279   C.2       1 RES1   0.0000
    21 C21    -24.0927  11.9408  52.0890   C.2       1 RES1   0.0000
    22 C22    -25.1496  12.3123  52.9660   C.2       1 RES1   0.0000
    23 N23    -26.2793  12.4766  52.3111   N.2       1 RES1   0.0000
    24 N24    -25.9966  12.2228  50.9997   N.pl3     1 RES1   0.0000
    25 C25    -27.0073  12.4432  49.9811   C.3       1 RES1   0.0000
    26 C26    -22.7254  11.7029  52.2047   C.2       1 RES1   0.0000
    27 C27    -18.4184   8.7667  49.0563   C.2       1 RES1   0.0000
    28 C28    -17.0848   8.4196  48.8562   C.2       1 RES1   0.0000
    29 N29    -16.5082   7.4512  48.0354   N.2       1 RES1   0.0000
@<TRIPOS>BOND
     1     2     1    1
     2     2     3    1
     3     3     4    1
     4     4     5    1
     5     5     6    1
     6     6     7    1
     7     7     8    1
     8     8     9    2
     9     9    10    1
    10    10    11    2
    11    11    12    1
    12    12    13    2
    13    13    14    1
    14    14    15   am
    15    15    16    2
    16    15    17    1
    17    17    18    2
    18    18    19    1
    19    19    20    2
    20    20    21    1
    21    21    22    1
    22    22    23    2
    23    23    24    1
    24    24    25    1
    25    21    26    2
    26    13    27    1
    27    27    28    2
    28    28    29    1
    29     6     2    1
    30    29     8    1
    31    28    10    1
    32    26    17    1
    33    24    20    1
@<TRIPOS>SUBSTRUCTURE
     1 RES1        1 GROUP             0 ****  ****    0  
@<TRIPOS>MOLECULE
ligand_24
    29    33     1     0     0
SMALL
USER_CHARGES
****
Generated from the CSD

@<TRIPOS>ATOM
     1 C1     -12.0596   9.3269  48.7798   C.3       1 RES1   0.0000
     2 C2     -12.4030   8.5921  47.5019   C.3       1 RES1   0.0000
     3 C3     -11.2522   8.4134  46.5170   C.3       1 RES1   0.0000
     4 C4     -11.3829   7.0579  45.9063   C.3       1 RES1   0.0000
     5 C5     -12.6591   6.4794  46.4672   C.3       1 RES1   0.0000
     6 N6     -12.8532   7.1792  47.7613   N.3       1 RES1   1.0000
     7 C7     -14.2284   7.0517  48.2674   C.3       1 RES1   0.0000
     8 C8     -14.5849   5.6373  48.5952   C.2       1 RES1   0.0000
     9 N9     -13.6952   4.6252  48.4856   N.2       1 RES1   0.0000
    10 C10    -14.3314   3.4754  48.9203   C.2       1 RES1   0.0000
    11 C11    -13.9254   2.1444  49.0020   C.2       1 RES1   0.0000
    12 C12    -14.8273   1.2098  49.4973   C.2       1 RES1   0.0000
    13 C13    -16.1123   1.6016  49.9006   C.2       1 RES1   0.0000
    14 N14    -17.0097   0.6090  50.3596   N.am      1 RES1   0.0000
    15 C15    -18.2760   0.7781  50.8197   C.2       1 RES1   0.0000
    16 O16    -18.8146   1.8768  50.9380   O.2       1 RES1   0.0000
    17 C17    -19.0433  -0.4755  51.0789   C.2       1 RES1   0.0000
    18 C18    -20.0966  -0.4446  51.9983   C.2       1 RES1   0.0000
    19 C19    -20.8489  -1.5801  52.2667   C.2       1 RES1   0.0000
    20 C20    -20.5467  -2.7438  51.5826   C.2       1 RES1   0.0000
    21 C21    -19.5293  -2.7898  50.6191   C.2       1 RES1   0.0000
    22 C22    -19.5665  -4.1265  50.1333   C.2       1 RES1   0.0000
    23 N23    -20.4867  -4.8350  50.7523   N.2       1 RES1   0.0000
    24 N24    -21.0704  -3.9920  51.6538   N.pl3     1 RES1   0.0000
    25 C25    -22.0487  -4.5001  52.5984   C.3       1 RES1   0.0000
    26 C26    -18.7528  -1.6567  50.3895   C.2       1 RES1   0.0000
    27 C27    -16.5081   2.9385  49.7961   C.2       1 RES1   0.0000
    28 C28    -15.6095   3.8778  49.2967   C.2       1 RES1   0.0000
    29 N29    -15.7539   5.2453  49.0668   N.2       1 RES1   0.0000
@<TRIPOS>BOND
     1     2     1    1
     2     2     3    1
     3     3     4    1
     4     4     5    1
     5     5     6    1
     6     6     7    1
     7     7     8    1
     8     8     9    2
     9     9    10    1
    10    10    11    2
    11    11    12    1
    12    12    13    2
    13    13    14    1
    14    14    15   am
    15    15    16    2
    16    15    17    1
    17    17    18    2
    18    18    19    1
    19    19    20    2
    20    20    21    1
    21    21    22    1
    22    22    23    2
    23    23    24    1
    24    24    25    1
    25    21    26    2
    26    13    27    1
    27    27    28    2
    28    28    29    1
    29     6     2    1
    30    29     8    1
    31    28    10    1
    32    26    17    1
    33    24    20    1
@<TRIPOS>SUBSTRUCTURE
     1 RES1        1 GROUP             0 ****  ****    0  
@<TRIPOS>MOLECULE
ligand_25
    29    33     1     0     0
SMALL
USER_CHARGES
****
Generated from the CSD

@<TRIPOS>ATOM
     1 C1     -12.0592   9.3266  48.7792   C.3       1 RES1   0.0000
     2 C2     -12.4031   8.5920  47.5014   C.3       1 RES1   0.0000
     3 C3     -11.2527   8.4133  46.5161   C.3       1 RES1   0.0000
     4 C4     -11.3837   7.0579  45.9052   C.3       1 RES1   0.0000
     5 C5     -12.6598   6.4795  46.4665   C.3       1 RES1   0.0000
     6 N6     -12.8534   7.1792  47.7609   N.3       1 RES1   1.0000
     7 C7     -14.2284   7.0517  48.2674   C.3       1 RES1   0.0000
     8 C8     -14.5849   5.6373  48.5952   C.2       1 RES1   0.0000
     9 N9     -13.6952   4.6252  48.4856   N.2       1 RES1   0.0000
    10 C10    -14.3314   3.4754  48.9203   C.2       1 RES1   0.0000
    11 C11    -13.9254   2.1444  49.0020   C.2       1 RES1   0.0000
    12 C12    -14.8273   1.2098  49.4973   C.2       1 RES1   0.0000
    13 C13    -16.1123   1.6016  49.9006   C.2       1 RES1   0.0000
    14 N14    -17.0097   0.6090  50.3596   N.am      1 RES1   0.0000
    15 C15    -18.2797   0.7769  50.8097   C.2       1 RES1   0.0000
    16 O16    -18.8369   1.8705  50.8786   O.2       1 RES1   0.0000
    17 C17    -19.0266  -0.4769  51.1224   C.2       1 RES1   0.0000
    18 C18    -20.4084  -0.5107  50.9091   C.2       1 RES1   0.0000
    19 C19    -21.1478  -1.6556  51.1730   C.2       1 RES1   0.0000
    20 C20    -20.4795  -2.7766  51.6316   C.2       1 RES1   0.0000
    21 C21    -19.0884  -2.7861  51.8060   C.2       1 RES1   0.0000
    22 C22    -18.7986  -4.1088  52.2422   C.2       1 RES1   0.0000
    23 N23    -19.8958  -4.8270  52.3536   N.2       1 RES1   0.0000
    24 N24    -20.9250  -4.0027  52.0000   N.pl3     1 RES1   0.0000
    25 C25    -22.2985  -4.4517  52.1394   C.3       1 RES1   0.0000
    26 C26    -18.3627  -1.6191  51.5800   C.2       1 RES1   0.0000
    27 C27    -16.5081   2.9385  49.7961   C.2       1 RES1   0.0000
    28 C28    -15.6095   3.8778  49.2967   C.2       1 RES1   0.0000
    29 N29    -15.7539   5.2453  49.0668   N.2       1 RES1   0.0000
@<TRIPOS>BOND
     1     2     1    1
     2     2     3    1
     3     3     4    1
     4     4     5    1
     5     5     6    1
     6     6     7    1
     7     7     8    1
     8     8     9    2
     9     9    10    1
    10    10    11    2
    11    11    12    1
    12    12    13    2
    13    13    14    1
    14    14    15   am
    15    15    16    2
    16    15    17    1
    17    17    18    2
    18    18    19    1
    19    19    20    2
    20    20    21    1
    21    21    22    1
    22    22    23    2
    23    23    24    1
    24    24    25    1
    25    21    26    2
    26    13    27    1
    27    27    28    2
    28    28    29    1
    29     6     2    1
    30    29     8    1
    31    28    10    1
    32    26    17    1
    33    24    20    1
@<TRIPOS>SUBSTRUCTURE
     1 RES1        1 GROUP             0 ****  ****    0  
@<TRIPOS>MOLECULE
ligand_26
    29    33     1     0     0
SMALL
USER_CHARGES
****
Generated from the CSD

@<TRIPOS>ATOM
     1 C1     -12.0600   9.3270  48.7811   C.3       1 RES1   0.0000
     2 C2     -12.4027   8.5922  47.5029   C.3       1 RES1   0.0000
     3 C3     -11.2513   8.4136  46.5187   C.3       1 RES1   0.0000
     4 C4     -11.3816   7.0582  45.9078   C.3       1 RES1   0.0000
     5 C5     -12.6581   6.4796  46.4680   C.3       1 RES1   0.0000
     6 N6     -12.8530   7.1793  47.7621   N.3       1 RES1   1.0000
     7 C7     -14.2284   7.0517  48.2674   C.3       1 RES1   0.0000
     8 C8     -14.5849   5.6373  48.5952   C.2       1 RES1   0.0000
     9 N9     -13.6952   4.6252  48.4856   N.2       1 RES1   0.0000
    10 C10    -14.3314   3.4754  48.9203   C.2       1 RES1   0.0000
    11 C11    -13.9254   2.1444  49.0020   C.2       1 RES1   0.0000
    12 C12    -14.8273   1.2098  49.4973   C.2       1 RES1   0.0000
    13 C13    -16.1123   1.6016  49.9006   C.2       1 RES1   0.0000
    14 N14    -17.0097   0.6090  50.3596   N.am      1 RES1   0.0000
    15 C15    -18.2826   0.7759  50.8018   C.2       1 RES1   0.0000
    16 O16    -18.8491   1.8661  50.8456   O.2       1 RES1   0.0000
    17 C17    -19.0203  -0.4771  51.1385   C.2       1 RES1   0.0000
    18 C18    -18.3128  -1.5494  51.6911   C.2       1 RES1   0.0000
    19 C19    -18.9536  -2.7326  52.0326   C.2       1 RES1   0.0000
    20 C20    -20.3200  -2.8191  51.8351   C.2       1 RES1   0.0000
    21 C21    -21.0617  -1.7418  51.3302   C.2       1 RES1   0.0000
    22 C22    -22.4034  -2.2150  51.3176   C.2       1 RES1   0.0000
    23 N23    -22.4758  -3.4592  51.7404   N.2       1 RES1   0.0000
    24 N24    -21.1965  -3.8333  52.0359   N.pl3     1 RES1   0.0000
    25 C25    -20.9072  -5.2058  52.4103   C.3       1 RES1   0.0000
    26 C26    -20.4022  -0.5755  50.9502   C.2       1 RES1   0.0000
    27 C27    -16.5081   2.9385  49.7961   C.2       1 RES1   0.0000
    28 C28    -15.6095   3.8778  49.2967   C.2       1 RES1   0.0000
    29 N29    -15.7539   5.2453  49.0668   N.2       1 RES1   0.0000
@<TRIPOS>BOND
     1     2     1    1
     2     2     3    1
     3     3     4    1
     4     4     5    1
     5     5     6    1
     6     6     7    1
     7     7     8    1
     8     8     9    2
     9     9    10    1
    10    10    11    2
    11    11    12    1
    12    12    13    2
    13    13    14    1
    14    14    15   am
    15    15    16    2
    16    15    17    1
    17    17    18    2
    18    18    19    1
    19    19    20    2
    20    20    21    1
    21    21    22    1
    22    22    23    2
    23    23    24    1
    24    24    25    1
    25    21    26    2
    26    13    27    1
    27    27    28    2
    28    28    29    1
    29     6     2    1
    30    29     8    1
    31    28    10    1
    32    26    17    1
    33    24    20    1
@<TRIPOS>SUBSTRUCTURE
     1 RES1        1 GROUP             0 ****  ****    0  
@<TRIPOS>MOLECULE
ligand_27
    29    33     1     0     0
SMALL
USER_CHARGES
****
Generated from the CSD

@<TRIPOS>ATOM
     1 C1     -12.0593   9.3265  48.7803   C.3       1 RES1   0.0000
     2 C2     -12.4029   8.5921  47.5022   C.3       1 RES1   0.0000
     3 C3     -11.2521   8.4135  46.5173   C.3       1 RES1   0.0000
     4 C4     -11.3829   7.0583  45.9062   C.3       1 RES1   0.0000
     5 C5     -12.6592   6.4797  46.4670   C.3       1 RES1   0.0000
     6 N6     -12.8532   7.1792  47.7614   N.3       1 RES1   1.0000
     7 C7     -14.2284   7.0517  48.2674   C.3       1 RES1   0.0000
     8 C8     -14.5849   5.6373  48.5952   C.2       1 RES1   0.0000
     9 N9     -13.6952   4.6252  48.4856   N.2       1 RES1   0.0000
    10 C10    -14.3314   3.4754  48.9203   C.2       1 RES1   0.0000
    11 C11    -13.9254   2.1444  49.0020   C.2       1 RES1   0.0000
    12 C12    -14.8273   1.2098  49.4973   C.2       1 RES1   0.0000
    13 C13    -16.1123   1.6016  49.9006   C.2       1 RES1   0.0000
    14 N14    -17.0097   0.6090  50.3596   N.am      1 RES1   0.0000
    15 C15    -18.2733   0.7789  50.8266   C.2       1 RES1   0.0000
    16 O16    -18.7985   1.8798  50.9801   O.2       1 RES1   0.0000
    17 C17    -19.0556  -0.4728  51.0473   C.2       1 RES1   0.0000
    18 C18    -18.7412  -1.6074  50.2926   C.2       1 RES1   0.0000
    19 C19    -19.4306  -2.7997  50.4673   C.2       1 RES1   0.0000
    20 C20    -20.4254  -2.8474  51.4273   C.2       1 RES1   0.0000
    21 C21    -20.7267  -1.7400  52.2327   C.2       1 RES1   0.0000
    22 C22    -21.7569  -2.2048  53.0968   C.2       1 RES1   0.0000
    23 N23    -22.0763  -3.4537  52.8319   N.2       1 RES1   0.0000
    24 N24    -21.2747  -3.8375  51.7955   N.pl3     1 RES1   0.0000
    25 C25    -21.4647  -5.1333  51.1691   C.3       1 RES1   0.0000
    26 C26    -20.0590  -0.5367  52.0189   C.2       1 RES1   0.0000
    27 C27    -16.5081   2.9385  49.7961   C.2       1 RES1   0.0000
    28 C28    -15.6095   3.8778  49.2967   C.2       1 RES1   0.0000
    29 N29    -15.7539   5.2453  49.0668   N.2       1 RES1   0.0000
@<TRIPOS>BOND
     1     2     1    1
     2     2     3    1
     3     3     4    1
     4     4     5    1
     5     5     6    1
     6     6     7    1
     7     7     8    1
     8     8     9    2
     9     9    10    1
    10    10    11    2
    11    11    12    1
    12    12    13    2
    13    13    14    1
    14    14    15   am
    15    15    16    2
    16    15    17    1
    17    17    18    2
    18    18    19    1
    19    19    20    2
    20    20    21    1
    21    21    22    1
    22    22    23    2
    23    23    24    1
    24    24    25    1
    25    21    26    2
    26    13    27    1
    27    27    28    2
    28    28    29    1
    29     6     2    1
    30    29     8    1
    31    28    10    1
    32    26    17    1
    33    24    20    1
@<TRIPOS>SUBSTRUCTURE
     1 RES1        1 GROUP             0 ****  ****    0  
@<TRIPOS>MOLECULE
ligand_28
    29    33     1     0     0
SMALL
USER_CHARGES
****
Generated from the CSD

@<TRIPOS>ATOM
     1 C1     -12.0600   9.3272  48.7802   C.3       1 RES1   0.0000
     2 C2     -12.4029   8.5921  47.5023   C.3       1 RES1   0.0000
     3 C3     -11.2518   8.4134  46.5178   C.3       1 RES1   0.0000
     4 C4     -11.3821   7.0579  45.9072   C.3       1 RES1   0.0000
     5 C5     -12.6584   6.4793  46.4678   C.3       1 RES1   0.0000
     6 N6     -12.8531   7.1793  47.7618   N.3       1 RES1   1.0000
     7 C7     -14.2284   7.0517  48.2674   C.3       1 RES1   0.0000
     8 C8     -14.5849   5.6373  48.5952   C.2       1 RES1   0.0000
     9 N9     -13.6952   4.6252  48.4856   N.2       1 RES1   0.0000
    10 C10    -14.3314   3.4754  48.9203   C.2       1 RES1   0.0000
    11 C11    -13.9254   2.1444  49.0020   C.2       1 RES1   0.0000
    12 C12    -14.8273   1.2098  49.4973   C.2       1 RES1   0.0000
    13 C13    -16.1123   1.6016  49.9006   C.2       1 RES1   0.0000
    14 N14    -17.0097   0.6090  50.3596   N.am      1 RES1   0.0000
    15 C15    -16.8010  -0.7301  50.4422   C.2       1 RES1   0.0000
    16 O16    -15.7658  -1.2803  50.0720   O.2       1 RES1   0.0000
    17 C17    -17.8742  -1.5116  51.1240   C.2       1 RES1   0.0000
    18 C18    -18.0185  -2.8689  50.8192   C.2       1 RES1   0.0000
    19 C19    -18.9933  -3.6431  51.4336   C.2       1 RES1   0.0000
    20 C20    -19.8080  -3.0440  52.3775   C.2       1 RES1   0.0000
    21 C21    -19.6521  -1.6984  52.7389   C.2       1 RES1   0.0000
    22 C22    -20.6361  -1.4891  53.7448   C.2       1 RES1   0.0000
    23 N23    -21.3416  -2.5794  53.9581   N.2       1 RES1   0.0000
    24 N24    -20.8468  -3.5231  53.1046   N.pl3     1 RES1   0.0000
    25 C25    -21.4962  -4.8168  52.9937   C.3       1 RES1   0.0000
    26 C26    -18.7001  -0.9203  52.0847   C.2       1 RES1   0.0000
    27 C27    -16.5081   2.9385  49.7961   C.2       1 RES1   0.0000
    28 C28    -15.6095   3.8778  49.2967   C.2       1 RES1   0.0000
    29 N29    -15.7539   5.2453  49.0668   N.2       1 RES1   0.0000
@<TRIPOS>BOND
     1     2     1    1
     2     2     3    1
     3     3     4    1
     4     4     5    1
     5     5     6    1
     6     6     7    1
     7     7     8    1
     8     8     9    2
     9     9    10    1
    10    10    11    2
    11    11    12    1
    12    12    13    2
    13    13    14    1
    14    14    15   am
    15    15    16    2
    16    15    17    1
    17    17    18    2
    18    18    19    1
    19    19    20    2
    20    20    21    1
    21    21    22    1
    22    22    23    2
    23    23    24    1
    24    24    25    1
    25    21    26    2
    26    13    27    1
    27    27    28    2
    28    28    29    1
    29     6     2    1
    30    29     8    1
    31    28    10    1
    32    26    17    1
    33    24    20    1
@<TRIPOS>SUBSTRUCTURE
     1 RES1        1 GROUP             0 ****  ****    0  
@<TRIPOS>MOLECULE
ligand_29
    29    33     1     0     0
SMALL
USER_CHARGES
****
Generated from the CSD

@<TRIPOS>ATOM
     1 C1     -12.0600   9.3269  48.7813   C.3       1 RES1   0.0000
     2 C2     -12.4026   8.5922  47.5031   C.3       1 RES1   0.0000
     3 C3     -11.2512   8.4137  46.5189   C.3       1 RES1   0.0000
     4 C4     -11.3815   7.0583  45.9080   C.3       1 RES1   0.0000
     5 C5     -12.6580   6.4797  46.4680   C.3       1 RES1   0.0000
     6 N6     -12.8529   7.1793  47.7622   N.3       1 RES1   1.0000
     7 C7     -14.2284   7.0517  48.2674   C.3       1 RES1   0.0000
     8 C8     -14.5849   5.6373  48.5952   C.2       1 RES1   0.0000
     9 N9     -13.6952   4.6252  48.4856   N.2       1 RES1   0.0000
    10 C10    -14.3314   3.4754  48.9203   C.2       1 RES1   0.0000
    11 C11    -13.9254   2.1444  49.0020   C.2       1 RES1   0.0000
    12 C12    -14.8273   1.2098  49.4973   C.2       1 RES1   0.0000
    13 C13    -16.1123   1.6016  49.9006   C.2       1 RES1   0.0000
    14 N14    -17.0097   0.6090  50.3596   N.am      1 RES1   0.0000
    15 C15    -16.7931  -0.7274  50.4633   C.2       1 RES1   0.0000
    16 O16    -15.7318  -1.2690  50.1610   O.2       1 RES1   0.0000
    17 C17    -17.8985  -1.5160  51.0828   C.2       1 RES1   0.0000
    18 C18    -17.5781  -2.6418  51.8482   C.2       1 RES1   0.0000
    19 C19    -18.5679  -3.4028  52.4552   C.2       1 RES1   0.0000
    20 C20    -19.8846  -3.0064  52.3048   C.2       1 RES1   0.0000
    21 C21    -20.2302  -1.8537  51.5854   C.2       1 RES1   0.0000
    22 C22    -21.6463  -1.7795  51.7011   C.2       1 RES1   0.0000
    23 N23    -22.1237  -2.7933  52.3913   N.2       1 RES1   0.0000
    24 N24    -21.0453  -3.5540  52.7411   N.pl3     1 RES1   0.0000
    25 C25    -21.2390  -4.8296  53.4066   C.3       1 RES1   0.0000
    26 C26    -19.2331  -1.1227  50.9444   C.2       1 RES1   0.0000
    27 C27    -16.5081   2.9385  49.7961   C.2       1 RES1   0.0000
    28 C28    -15.6095   3.8778  49.2967   C.2       1 RES1   0.0000
    29 N29    -15.7539   5.2453  49.0668   N.2       1 RES1   0.0000
@<TRIPOS>BOND
     1     2     1    1
     2     2     3    1
     3     3     4    1
     4     4     5    1
     5     5     6    1
     6     6     7    1
     7     7     8    1
     8     8     9    2
     9     9    10    1
    10    10    11    2
    11    11    12    1
    12    12    13    2
    13    13    14    1
    14    14    15   am
    15    15    16    2
    16    15    17    1
    17    17    18    2
    18    18    19    1
    19    19    20    2
    20    20    21    1
    21    21    22    1
    22    22    23    2
    23    23    24    1
    24    24    25    1
    25    21    26    2
    26    13    27    1
    27    27    28    2
    28    28    29    1
    29     6     2    1
    30    29     8    1
    31    28    10    1
    32    26    17    1
    33    24    20    1
@<TRIPOS>SUBSTRUCTURE
     1 RES1        1 GROUP             0 ****  ****    0  
@<TRIPOS>MOLECULE
ligand_30
    29    33     1     0     0
SMALL
USER_CHARGES
****
Generated from the CSD

@<TRIPOS>ATOM
     1 C1     -12.0612   9.3281  48.7817   C.3       1 RES1   0.0000
     2 C2     -12.4025   8.5924  47.5037   C.3       1 RES1   0.0000
     3 C3     -11.2502   8.4136  46.5206   C.3       1 RES1   0.0000
     4 C4     -11.3794   7.0578  45.9104   C.3       1 RES1   0.0000
     5 C5     -12.6562   6.4790  46.4698   C.3       1 RES1   0.0000
     6 N6     -12.8525   7.1795  47.7633   N.3       1 RES1   1.0000
     7 C7     -14.2284   7.0517  48.2674   C.3       1 RES1   0.0000
     8 C8     -14.5849   5.6373  48.5952   C.2       1 RES1   0.0000
     9 N9     -13.6952   4.6252  48.4856   N.2       1 RES1   0.0000
    10 C10    -14.3314   3.4754  48.9203   C.2       1 RES1   0.0000
    11 C11    -13.9254   2.1444  49.0020   C.2       1 RES1   0.0000
    12 C12    -14.8273   1.2098  49.4973   C.2       1 RES1   0.0000
    13 C13    -16.1123   1.6016  49.9006   C.2       1 RES1   0.0000
    14 N14    -17.0097   0.6090  50.3596   N.am      1 RES1   0.0000
    15 C15    -16.7923  -0.7271  50.4656   C.2       1 RES1   0.0000
    16 O16    -15.7257  -1.2666  50.1783   O.2       1 RES1   0.0000
    17 C17    -17.9052  -1.5181  51.0684   C.2       1 RES1   0.0000
    18 C18    -19.2243  -1.1271  50.8179   C.2       1 RES1   0.0000
    19 C19    -20.2956  -1.8353  51.3453   C.2       1 RES1   0.0000
    20 C20    -20.0278  -2.9571  52.1090   C.2       1 RES1   0.0000
    21 C21    -18.7169  -3.4005  52.3338   C.2       1 RES1   0.0000
    22 C22    -18.8744  -4.5795  53.1144   C.2       1 RES1   0.0000
    23 N23    -20.1433  -4.8191  53.3683   N.2       1 RES1   0.0000
    24 N24    -20.8454  -3.8127  52.7699   N.pl3     1 RES1   0.0000
    25 C25    -22.2796  -3.7069  52.9691   C.3       1 RES1   0.0000
    26 C26    -17.6488  -2.6578  51.8366   C.2       1 RES1   0.0000
    27 C27    -16.5081   2.9385  49.7961   C.2       1 RES1   0.0000
    28 C28    -15.6095   3.8778  49.2967   C.2       1 RES1   0.0000
    29 N29    -15.7539   5.2453  49.0668   N.2       1 RES1   0.0000
@<TRIPOS>BOND
     1     2     1    1
     2     2     3    1
     3     3     4    1
     4     4     5    1
     5     5     6    1
     6     6     7    1
     7     7     8    1
     8     8     9    2
     9     9    10    1
    10    10    11    2
    11    11    12    1
    12    12    13    2
    13    13    14    1
    14    14    15   am
    15    15    16    2
    16    15    17    1
    17    17    18    2
    18    18    19    1
    19    19    20    2
    20    20    21    1
    21    21    22    1
    22    22    23    2
    23    23    24    1
    24    24    25    1
    25    21    26    2
    26    13    27    1
    27    27    28    2
    28    28    29    1
    29     6     2    1
    30    29     8    1
    31    28    10    1
    32    26    17    1
    33    24    20    1
@<TRIPOS>SUBSTRUCTURE
     1 RES1        1 GROUP             0 ****  ****    0  
@<TRIPOS>MOLECULE
ligand_31
    29    33     1     0     0
SMALL
USER_CHARGES
****
Generated from the CSD

@<TRIPOS>ATOM
     1 C1     -12.0596   9.3267  48.7806   C.3       1 RES1   0.0000
     2 C2     -12.4028   8.5921  47.5025   C.3       1 RES1   0.0000
     3 C3     -11.2518   8.4136  46.5178   C.3       1 RES1   0.0000
     4 C4     -11.3824   7.0582  45.9068   C.3       1 RES1   0.0000
     5 C5     -12.6588   6.4797  46.4674   C.3       1 RES1   0.0000
     6 N6     -12.8531   7.1793  47.7616   N.3       1 RES1   1.0000
     7 C7     -14.2284   7.0517  48.2674   C.3       1 RES1   0.0000
     8 C8     -14.5849   5.6373  48.5952   C.2       1 RES1   0.0000
     9 N9     -13.6952   4.6252  48.4856   N.2       1 RES1   0.0000
    10 C10    -14.3314   3.4754  48.9203   C.2       1 RES1   0.0000
    11 C11    -13.9254   2.1444  49.0020   C.2       1 RES1   0.0000
    12 C12    -14.8273   1.2098  49.4973   C.2       1 RES1   0.0000
    13 C13    -16.1123   1.6016  49.9006   C.2       1 RES1   0.0000
    14 N14    -17.0097   0.6090  50.3596   N.am      1 RES1   0.0000
    15 C15    -16.8057  -0.7315  50.4298   C.2       1 RES1   0.0000
    16 O16    -15.7897  -1.2866  50.0162   O.2       1 RES1   0.0000
    17 C17    -17.8549  -1.5089  51.1526   C.2       1 RES1   0.0000
    18 C18    -18.6099  -0.8681  52.1401   C.2       1 RES1   0.0000
    19 C19    -19.6053  -1.5428  52.8337   C.2       1 RES1   0.0000
    20 C20    -19.8514  -2.8644  52.5075   C.2       1 RES1   0.0000
    21 C21    -19.1442  -3.5162  51.4873   C.2       1 RES1   0.0000
    22 C22    -19.7138  -4.8191  51.4430   C.2       1 RES1   0.0000
    23 N23    -20.6494  -4.9636  52.3572   N.2       1 RES1   0.0000
    24 N24    -20.7165  -3.7727  53.0213   N.pl3     1 RES1   0.0000
    25 C25    -21.5688  -3.6368  54.1886   C.3       1 RES1   0.0000
    26 C26    -18.1184  -2.8431  50.8283   C.2       1 RES1   0.0000
    27 C27    -16.5081   2.9385  49.7961   C.2       1 RES1   0.0000
    28 C28    -15.6095   3.8778  49.2967   C.2       1 RES1   0.0000
    29 N29    -15.7539   5.2453  49.0668   N.2       1 RES1   0.0000
@<TRIPOS>BOND
     1     2     1    1
     2     2     3    1
     3     3     4    1
     4     4     5    1
     5     5     6    1
     6     6     7    1
     7     7     8    1
     8     8     9    2
     9     9    10    1
    10    10    11    2
    11    11    12    1
    12    12    13    2
    13    13    14    1
    14    14    15   am
    15    15    16    2
    16    15    17    1
    17    17    18    2
    18    18    19    1
    19    19    20    2
    20    20    21    1
    21    21    22    1
    22    22    23    2
    23    23    24    1
    24    24    25    1
    25    21    26    2
    26    13    27    1
    27    27    28    2
    28    28    29    1
    29     6     2    1
    30    29     8    1
    31    28    10    1
    32    26    17    1
    33    24    20    1
@<TRIPOS>SUBSTRUCTURE
     1 RES1        1 GROUP             0 ****  ****    0  
@<TRIPOS>MOLECULE
ligand_32
    29    33     1     0     0
SMALL
USER_CHARGES
****
Generated from the CSD

@<TRIPOS>ATOM
     1 C1     -12.1900   9.4700  48.6410   C.3       1 RES1   0.0000
     2 C2     -12.4260   8.5850  47.4360   C.3       1 RES1   0.0000
     3 C3     -11.2122   8.3554  46.5415   C.3       1 RES1   0.0000
     4 C4     -11.2500   6.9368  46.0793   C.3       1 RES1   0.0000
     5 C5     -12.5323   6.3625  46.6305   C.3       1 RES1   0.0000
     6 N6     -12.8320   7.1889  47.8262   N.3       1 RES1   1.0000
     7 C7     -14.2284   7.0517  48.2674   C.3       1 RES1   0.0000
     8 C8     -14.5849   5.6373  48.5952   C.2       1 RES1   0.0000
     9 N9     -15.1010   4.7917  47.6752   N.2       1 RES1   0.0000
    10 C10    -15.2546   3.5627  48.2930   C.2       1 RES1   0.0000
    11 C11    -15.7626   2.3412  47.8536   C.2       1 RES1   0.0000
    12 C12    -15.7761   1.2745  48.7448   C.2       1 RES1   0.0000
    13 C13    -15.2922   1.4300  50.0520   C.2       1 RES1   0.0000
    14 N14    -15.3641   0.3279  50.9361   N.am      1 RES1   0.0000
    15 C15    -14.9284   0.2591  52.2202   C.2       1 RES1   0.0000
    16 O16    -14.3515   1.1818  52.7921   O.2       1 RES1   0.0000
    17 C17    -15.2907  -0.9851  52.9608   C.2       1 RES1   0.0000
    18 C18    -14.4983  -1.3817  54.0428   C.2       1 RES1   0.0000
    19 C19    -14.7986  -2.5244  54.7718   C.2       1 RES1   0.0000
    20 C20    -15.9195  -3.2530  54.4168   C.2       1 RES1   0.0000
    21 C21    -16.7595  -2.8504  53.3690   C.2       1 RES1   0.0000
    22 C22    -17.7947  -3.8262  53.3546   C.2       1 RES1   0.0000
    23 N23    -17.5971  -4.7468  54.2740   N.2       1 RES1   0.0000
    24 N24    -16.4374  -4.4053  54.9083   N.pl3     1 RES1   0.0000
    25 C25    -15.8614  -5.2939  55.9013   C.3       1 RES1   0.0000
    26 C26    -16.4246  -1.7271  52.6169   C.2       1 RES1   0.0000
    27 C27    -14.8015   2.6671  50.4808   C.2       1 RES1   0.0000
    28 C28    -14.7896   3.7398  49.5929   C.2       1 RES1   0.0000
    29 N29    -14.3870   5.0631  49.7674   N.2       1 RES1   0.0000
@<TRIPOS>BOND
     1     2     1    1
     2     2     3    1
     3     3     4    1
     4     4     5    1
     5     5     6    1
     6     6     7    1
     7     7     8    1
     8     8     9    2
     9     9    10    1
    10    10    11    2
    11    11    12    1
    12    12    13    2
    13    13    14    1
    14    14    15   am
    15    15    16    2
    16    15    17    1
    17    17    18    2
    18    18    19    1
    19    19    20    2
    20    20    21    1
    21    21    22    1
    22    22    23    2
    23    23    24    1
    24    24    25    1
    25    21    26    2
    26    13    27    1
    27    27    28    2
    28    28    29    1
    29     6     2    1
    30    29     8    1
    31    28    10    1
    32    26    17    1
    33    24    20    1
@<TRIPOS>SUBSTRUCTURE
     1 RES1        1 GROUP             0 ****  ****    0  
@<TRIPOS>MOLECULE
ligand_33
    29    33     1     0     0
SMALL
USER_CHARGES
****
Generated from the CSD

@<TRIPOS>ATOM
     1 C1     -12.1900   9.4700  48.6410   C.3       1 RES1   0.0000
     2 C2     -12.4260   8.5850  47.4360   C.3       1 RES1   0.0000
     3 C3     -11.2122   8.3554  46.5415   C.3       1 RES1   0.0000
     4 C4     -11.2500   6.9368  46.0793   C.3       1 RES1   0.0000
     5 C5     -12.5323   6.3625  46.6305   C.3       1 RES1   0.0000
     6 N6     -12.8320   7.1889  47.8262   N.3       1 RES1   1.0000
     7 C7     -14.2284   7.0517  48.2674   C.3       1 RES1   0.0000
     8 C8     -14.5849   5.6373  48.5952   C.2       1 RES1   0.0000
     9 N9     -15.1010   4.7917  47.6752   N.2       1 RES1   0.0000
    10 C10    -15.2546   3.5627  48.2930   C.2       1 RES1   0.0000
    11 C11    -15.7626   2.3412  47.8536   C.2       1 RES1   0.0000
    12 C12    -15.7761   1.2745  48.7448   C.2       1 RES1   0.0000
    13 C13    -15.2922   1.4300  50.0520   C.2       1 RES1   0.0000
    14 N14    -15.3641   0.3279  50.9361   N.am      1 RES1   0.0000
    15 C15    -14.9397   0.2630  52.2242   C.2       1 RES1   0.0000
    16 O16    -14.4123   1.2040  52.8138   O.2       1 RES1   0.0000
    17 C17    -15.2520  -1.0058  52.9454   C.2       1 RES1   0.0000
    18 C18    -15.5144  -0.9552  54.3181   C.2       1 RES1   0.0000
    19 C19    -15.8213  -2.1048  55.0333   C.2       1 RES1   0.0000
    20 C20    -15.8856  -3.3053  54.3490   C.2       1 RES1   0.0000
    21 C21    -15.6769  -3.3770  52.9645   C.2       1 RES1   0.0000
    22 C22    -15.8671  -4.7519  52.6519   C.2       1 RES1   0.0000
    23 N23    -16.1340  -5.4555  53.7316   N.2       1 RES1   0.0000
    24 N24    -16.1234  -4.5710  54.7716   N.pl3     1 RES1   0.0000
    25 C25    -16.2562  -5.0495  56.1358   C.3       1 RES1   0.0000
    26 C26    -15.3268  -2.2249  52.2648   C.2       1 RES1   0.0000
    27 C27    -14.8015   2.6671  50.4808   C.2       1 RES1   0.0000
    28 C28    -14.7896   3.7398  49.5929   C.2       1 RES1   0.0000
    29 N29    -14.3870   5.0631  49.7674   N.2       1 RES1   0.0000
@<TRIPOS>BOND
     1     2     1    1
     2     2     3    1
     3     3     4    1
     4     4     5    1
     5     5     6    1
     6     6     7    1
     7     7     8    1
     8     8     9    2
     9     9    10    1
    10    10    11    2
    11    11    12    1
    12    12    13    2
    13    13    14    1
    14    14    15   am
    15    15    16    2
    16    15    17    1
    17    17    18    2
    18    18    19    1
    19    19    20    2
    20    20    21    1
    21    21    22    1
    22    22    23    2
    23    23    24    1
    24    24    25    1
    25    21    26    2
    26    13    27    1
    27    27    28    2
    28    28    29    1
    29     6     2    1
    30    29     8    1
    31    28    10    1
    32    26    17    1
    33    24    20    1
@<TRIPOS>SUBSTRUCTURE
     1 RES1        1 GROUP             0 ****  ****    0  
@<TRIPOS>MOLECULE
ligand_34
    29    33     1     0     0
SMALL
USER_CHARGES
****
Generated from the CSD

@<TRIPOS>ATOM
     1 C1     -12.1900   9.4700  48.6410   C.3       1 RES1   0.0000
     2 C2     -12.4260   8.5850  47.4360   C.3       1 RES1   0.0000
     3 C3     -11.2122   8.3554  46.5415   C.3       1 RES1   0.0000
     4 C4     -11.2500   6.9368  46.0793   C.3       1 RES1   0.0000
     5 C5     -12.5323   6.3625  46.6305   C.3       1 RES1   0.0000
     6 N6     -12.8320   7.1889  47.8262   N.3       1 RES1   1.0000
     7 C7     -14.2284   7.0517  48.2674   C.3       1 RES1   0.0000
     8 C8     -14.5849   5.6373  48.5952   C.2       1 RES1   0.0000
     9 N9     -15.1010   4.7917  47.6752   N.2       1 RES1   0.0000
    10 C10    -15.2546   3.5627  48.2930   C.2       1 RES1   0.0000
    11 C11    -15.7626   2.3412  47.8536   C.2       1 RES1   0.0000
    12 C12    -15.7761   1.2745  48.7448   C.2       1 RES1   0.0000
    13 C13    -15.2922   1.4300  50.0520   C.2       1 RES1   0.0000
    14 N14    -15.3641   0.3279  50.9361   N.am      1 RES1   0.0000
    15 C15    -14.9461   0.2652  52.2264   C.2       1 RES1   0.0000
    16 O16    -14.4408   1.2135  52.8236   O.2       1 RES1   0.0000
    17 C17    -15.2376  -1.0130  52.9398   C.2       1 RES1   0.0000
    18 C18    -15.1964  -2.2119  52.2210   C.2       1 RES1   0.0000
    19 C19    -15.4484  -3.4289  52.8397   C.2       1 RES1   0.0000
    20 C20    -15.7192  -3.4314  54.1962   C.2       1 RES1   0.0000
    21 C21    -15.7169  -2.2497  54.9508   C.2       1 RES1   0.0000
    22 C22    -15.9949  -2.6805  56.2779   C.2       1 RES1   0.0000
    23 N23    -16.1786  -3.9826  56.3296   N.2       1 RES1   0.0000
    24 N24    -16.0305  -4.4366  55.0505   N.pl3     1 RES1   0.0000
    25 C25    -16.3001  -5.8279  54.7358   C.3       1 RES1   0.0000
    26 C26    -15.5061  -1.0304  54.3118   C.2       1 RES1   0.0000
    27 C27    -14.8015   2.6671  50.4808   C.2       1 RES1   0.0000
    28 C28    -14.7896   3.7398  49.5929   C.2       1 RES1   0.0000
    29 N29    -14.3870   5.0631  49.7674   N.2       1 RES1   0.0000
@<TRIPOS>BOND
     1     2     1    1
     2     2     3    1
     3     3     4    1
     4     4     5    1
     5     5     6    1
     6     6     7    1
     7     7     8    1
     8     8     9    2
     9     9    10    1
    10    10    11    2
    11    11    12    1
    12    12    13    2
    13    13    14    1
    14    14    15   am
    15    15    16    2
    16    15    17    1
    17    17    18    2
    18    18    19    1
    19    19    20    2
    20    20    21    1
    21    21    22    1
    22    22    23    2
    23    23    24    1
    24    24    25    1
    25    21    26    2
    26    13    27    1
    27    27    28    2
    28    28    29    1
    29     6     2    1
    30    29     8    1
    31    28    10    1
    32    26    17    1
    33    24    20    1
@<TRIPOS>SUBSTRUCTURE
     1 RES1        1 GROUP             0 ****  ****    0  
@<TRIPOS>MOLECULE
ligand_35
    29    33     1     0     0
SMALL
USER_CHARGES
****
Generated from the CSD

@<TRIPOS>ATOM
     1 C1     -12.1900   9.4700  48.6410   C.3       1 RES1   0.0000
     2 C2     -12.4260   8.5850  47.4360   C.3       1 RES1   0.0000
     3 C3     -11.2122   8.3554  46.5415   C.3       1 RES1   0.0000
     4 C4     -11.2500   6.9368  46.0793   C.3       1 RES1   0.0000
     5 C5     -12.5323   6.3625  46.6305   C.3       1 RES1   0.0000
     6 N6     -12.8320   7.1889  47.8262   N.3       1 RES1   1.0000
     7 C7     -14.2284   7.0517  48.2674   C.3       1 RES1   0.0000
     8 C8     -14.5849   5.6373  48.5952   C.2       1 RES1   0.0000
     9 N9     -15.1010   4.7917  47.6752   N.2       1 RES1   0.0000
    10 C10    -15.2546   3.5627  48.2930   C.2       1 RES1   0.0000
    11 C11    -15.7626   2.3412  47.8536   C.2       1 RES1   0.0000
    12 C12    -15.7761   1.2745  48.7448   C.2       1 RES1   0.0000
    13 C13    -15.2922   1.4300  50.0520   C.2       1 RES1   0.0000
    14 N14    -15.3641   0.3279  50.9361   N.am      1 RES1   0.0000
    15 C15    -14.9220   0.2568  52.2179   C.2       1 RES1   0.0000
    16 O16    -14.3120   1.1657  52.7774   O.2       1 RES1   0.0000
    17 C17    -15.3185  -0.9685  52.9723   C.2       1 RES1   0.0000
    18 C18    -16.4890  -1.6391  52.6036   C.2       1 RES1   0.0000
    19 C19    -16.8961  -2.7895  53.2654   C.2       1 RES1   0.0000
    20 C20    -16.1007  -3.2741  54.2882   C.2       1 RES1   0.0000
    21 C21    -14.8966  -2.6504  54.6446   C.2       1 RES1   0.0000
    22 C22    -14.3754  -3.4647  55.6882   C.2       1 RES1   0.0000
    23 N23    -15.1855  -4.4643  55.9651   N.2       1 RES1   0.0000
    24 N24    -16.2507  -4.3326  55.1213   N.pl3     1 RES1   0.0000
    25 C25    -17.3994  -5.2102  55.2562   C.3       1 RES1   0.0000
    26 C26    -14.5203  -1.4728  54.0035   C.2       1 RES1   0.0000
    27 C27    -14.8015   2.6671  50.4808   C.2       1 RES1   0.0000
    28 C28    -14.7896   3.7398  49.5929   C.2       1 RES1   0.0000
    29 N29    -14.3870   5.0631  49.7674   N.2       1 RES1   0.0000
@<TRIPOS>BOND
     1     2     1    1
     2     2     3    1
     3     3     4    1
     4     4     5    1
     5     5     6    1
     6     6     7    1
     7     7     8    1
     8     8     9    2
     9     9    10    1
    10    10    11    2
    11    11    12    1
    12    12    13    2
    13    13    14    1
    14    14    15   am
    15    15    16    2
    16    15    17    1
    17    17    18    2
    18    18    19    1
    19    19    20    2
    20    20    21    1
    21    21    22    1
    22    22    23    2
    23    23    24    1
    24    24    25    1
    25    21    26    2
    26    13    27    1
    27    27    28    2
    28    28    29    1
    29     6     2    1
    30    29     8    1
    31    28    10    1
    32    26    17    1
    33    24    20    1
@<TRIPOS>SUBSTRUCTURE
     1 RES1        1 GROUP             0 ****  ****    0  
@<TRIPOS>MOLECULE
ligand_36
    29    33     1     0     0
SMALL
USER_CHARGES
****
Generated from the CSD

@<TRIPOS>ATOM
     1 C1     -12.1900   9.4700  48.6410   C.3       1 RES1   0.0000
     2 C2     -12.4260   8.5850  47.4360   C.3       1 RES1   0.0000
     3 C3     -11.2122   8.3554  46.5415   C.3       1 RES1   0.0000
     4 C4     -11.2500   6.9368  46.0793   C.3       1 RES1   0.0000
     5 C5     -12.5323   6.3625  46.6305   C.3       1 RES1   0.0000
     6 N6     -12.8320   7.1889  47.8262   N.3       1 RES1   1.0000
     7 C7     -14.2284   7.0517  48.2674   C.3       1 RES1   0.0000
     8 C8     -14.5849   5.6373  48.5952   C.2       1 RES1   0.0000
     9 N9     -14.4499   5.1295  49.8409   N.2       1 RES1   0.0000
    10 C10    -14.9216   3.8288  49.8035   C.2       1 RES1   0.0000
    11 C11    -15.0005   2.8243  50.7667   C.2       1 RES1   0.0000
    12 C12    -15.5415   1.5984  50.3971   C.2       1 RES1   0.0000
    13 C13    -15.9923   1.3827  49.0866   C.2       1 RES1   0.0000
    14 N14    -16.4974   0.1059  48.7460   N.am      1 RES1   0.0000
    15 C15    -17.0066  -0.2986  47.5540   C.2       1 RES1   0.0000
    16 O16    -17.1354   0.4443  46.5831   O.2       1 RES1   0.0000
    17 C17    -17.3094  -1.7557  47.4406   C.2       1 RES1   0.0000
    18 C18    -18.2705  -2.1756  46.5155   C.2       1 RES1   0.0000
    19 C19    -18.5808  -3.5201  46.3628   C.2       1 RES1   0.0000
    20 C20    -17.8967  -4.4427  47.1337   C.2       1 RES1   0.0000
    21 C21    -16.8931  -4.0536  48.0321   C.2       1 RES1   0.0000
    22 C22    -16.4228  -5.2776  48.5841   C.2       1 RES1   0.0000
    23 N23    -17.0858  -6.3065  48.1006   N.2       1 RES1   0.0000
    24 N24    -18.0017  -5.7907  47.2294   N.pl3     1 RES1   0.0000
    25 C25    -18.9904  -6.6577  46.6144   C.3       1 RES1   0.0000
    26 C26    -16.6208  -2.6993  48.2089   C.2       1 RES1   0.0000
    27 C27    -15.8902   2.3964  48.1290   C.2       1 RES1   0.0000
    28 C28    -15.3452   3.6250  48.4935   C.2       1 RES1   0.0000
    29 N29    -15.1073   4.7754  47.7426   N.2       1 RES1   0.0000
@<TRIPOS>BOND
     1     2     1    1
     2     2     3    1
     3     3     4    1
     4     4     5    1
     5     5     6    1
     6     6     7    1
     7     7     8    1
     8     8     9    2
     9     9    10    1
    10    10    11    2
    11    11    12    1
    12    12    13    2
    13    13    14    1
    14    14    15   am
    15    15    16    2
    16    15    17    1
    17    17    18    2
    18    18    19    1
    19    19    20    2
    20    20    21    1
    21    21    22    1
    22    22    23    2
    23    23    24    1
    24    24    25    1
    25    21    26    2
    26    13    27    1
    27    27    28    2
    28    28    29    1
    29     6     2    1
    30    29     8    1
    31    28    10    1
    32    26    17    1
    33    24    20    1
@<TRIPOS>SUBSTRUCTURE
     1 RES1        1 GROUP             0 ****  ****    0  
@<TRIPOS>MOLECULE
ligand_37
    29    33     1     0     0
SMALL
USER_CHARGES
****
Generated from the CSD

@<TRIPOS>ATOM
     1 C1     -12.1900   9.4700  48.6410   C.3       1 RES1   0.0000
     2 C2     -12.4260   8.5850  47.4360   C.3       1 RES1   0.0000
     3 C3     -11.2122   8.3554  46.5415   C.3       1 RES1   0.0000
     4 C4     -11.2500   6.9368  46.0793   C.3       1 RES1   0.0000
     5 C5     -12.5323   6.3625  46.6305   C.3       1 RES1   0.0000
     6 N6     -12.8320   7.1889  47.8262   N.3       1 RES1   1.0000
     7 C7     -14.2284   7.0517  48.2674   C.3       1 RES1   0.0000
     8 C8     -14.5849   5.6373  48.5952   C.2       1 RES1   0.0000
     9 N9     -14.4499   5.1295  49.8409   N.2       1 RES1   0.0000
    10 C10    -14.9216   3.8288  49.8035   C.2       1 RES1   0.0000
    11 C11    -15.0005   2.8243  50.7667   C.2       1 RES1   0.0000
    12 C12    -15.5415   1.5984  50.3971   C.2       1 RES1   0.0000
    13 C13    -15.9923   1.3827  49.0866   C.2       1 RES1   0.0000
    14 N14    -16.4974   0.1059  48.7460   N.am      1 RES1   0.0000
    15 C15    -16.9951  -0.3022  47.5504   C.2       1 RES1   0.0000
    16 O16    -17.0728   0.4258  46.5628   O.2       1 RES1   0.0000
    17 C17    -17.3521  -1.7484  47.4576   C.2       1 RES1   0.0000
    18 C18    -17.1945  -2.4055  46.2332   C.2       1 RES1   0.0000
    19 C19    -17.5011  -3.7526  46.0967   C.2       1 RES1   0.0000
    20 C20    -17.9459  -4.4403  47.2115   C.2       1 RES1   0.0000
    21 C21    -18.0646  -3.8186  48.4626   C.2       1 RES1   0.0000
    22 C22    -18.5045  -4.8571  49.3299   C.2       1 RES1   0.0000
    23 N23    -18.6680  -5.9882  48.6773   N.2       1 RES1   0.0000
    24 N24    -18.3460  -5.7247  47.3770   N.pl3     1 RES1   0.0000
    25 C25    -18.5454  -6.7388  46.3575   C.3       1 RES1   0.0000
    26 C26    -17.7962  -2.4570  48.5781   C.2       1 RES1   0.0000
    27 C27    -15.8902   2.3964  48.1290   C.2       1 RES1   0.0000
    28 C28    -15.3452   3.6250  48.4935   C.2       1 RES1   0.0000
    29 N29    -15.1073   4.7754  47.7426   N.2       1 RES1   0.0000
@<TRIPOS>BOND
     1     2     1    1
     2     2     3    1
     3     3     4    1
     4     4     5    1
     5     5     6    1
     6     6     7    1
     7     7     8    1
     8     8     9    2
     9     9    10    1
    10    10    11    2
    11    11    12    1
    12    12    13    2
    13    13    14    1
    14    14    15   am
    15    15    16    2
    16    15    17    1
    17    17    18    2
    18    18    19    1
    19    19    20    2
    20    20    21    1
    21    21    22    1
    22    22    23    2
    23    23    24    1
    24    24    25    1
    25    21    26    2
    26    13    27    1
    27    27    28    2
    28    28    29    1
    29     6     2    1
    30    29     8    1
    31    28    10    1
    32    26    17    1
    33    24    20    1
@<TRIPOS>SUBSTRUCTURE
     1 RES1        1 GROUP             0 ****  ****    0  
@<TRIPOS>MOLECULE
ligand_38
    29    33     1     0     0
SMALL
USER_CHARGES
****
Generated from the CSD

@<TRIPOS>ATOM
     1 C1     -12.1900   9.4700  48.6410   C.3       1 RES1   0.0000
     2 C2     -12.4260   8.5850  47.4360   C.3       1 RES1   0.0000
     3 C3     -11.2122   8.3554  46.5415   C.3       1 RES1   0.0000
     4 C4     -11.2500   6.9368  46.0793   C.3       1 RES1   0.0000
     5 C5     -12.5323   6.3625  46.6305   C.3       1 RES1   0.0000
     6 N6     -12.8320   7.1889  47.8262   N.3       1 RES1   1.0000
     7 C7     -14.2284   7.0517  48.2674   C.3       1 RES1   0.0000
     8 C8     -14.5849   5.6373  48.5952   C.2       1 RES1   0.0000
     9 N9     -14.4499   5.1295  49.8409   N.2       1 RES1   0.0000
    10 C10    -14.9216   3.8288  49.8035   C.2       1 RES1   0.0000
    11 C11    -15.0005   2.8243  50.7667   C.2       1 RES1   0.0000
    12 C12    -15.5415   1.5984  50.3971   C.2       1 RES1   0.0000
    13 C13    -15.9923   1.3827  49.0866   C.2       1 RES1   0.0000
    14 N14    -16.4974   0.1059  48.7460   N.am      1 RES1   0.0000
    15 C15    -16.9886  -0.3042  47.5484   C.2       1 RES1   0.0000
    16 O16    -17.0439   0.4165  46.5541   O.2       1 RES1   0.0000
    17 C17    -17.3677  -1.7453  47.4636   C.2       1 RES1   0.0000
    18 C18    -17.9027  -2.3704  48.5945   C.2       1 RES1   0.0000
    19 C19    -18.2819  -3.7055  48.5650   C.2       1 RES1   0.0000
    20 C20    -18.1402  -4.4014  47.3779   C.2       1 RES1   0.0000
    21 C21    -17.6542  -3.7859  46.2157   C.2       1 RES1   0.0000
    22 C22    -17.7004  -4.8111  45.2304   C.2       1 RES1   0.0000
    23 N23    -18.1387  -5.9433  45.7382   N.2       1 RES1   0.0000
    24 N24    -18.3866  -5.6953  47.0576   N.pl3     1 RES1   0.0000
    25 C25    -18.7634  -6.7811  47.9445   C.3       1 RES1   0.0000
    26 C26    -17.2360  -2.4586  46.2683   C.2       1 RES1   0.0000
    27 C27    -15.8902   2.3964  48.1290   C.2       1 RES1   0.0000
    28 C28    -15.3452   3.6250  48.4935   C.2       1 RES1   0.0000
    29 N29    -15.1073   4.7754  47.7426   N.2       1 RES1   0.0000
@<TRIPOS>BOND
     1     2     1    1
     2     2     3    1
     3     3     4    1
     4     4     5    1
     5     5     6    1
     6     6     7    1
     7     7     8    1
     8     8     9    2
     9     9    10    1
    10    10    11    2
    11    11    12    1
    12    12    13    2
    13    13    14    1
    14    14    15   am
    15    15    16    2
    16    15    17    1
    17    17    18    2
    18    18    19    1
    19    19    20    2
    20    20    21    1
    21    21    22    1
    22    22    23    2
    23    23    24    1
    24    24    25    1
    25    21    26    2
    26    13    27    1
    27    27    28    2
    28    28    29    1
    29     6     2    1
    30    29     8    1
    31    28    10    1
    32    26    17    1
    33    24    20    1
@<TRIPOS>SUBSTRUCTURE
     1 RES1        1 GROUP             0 ****  ****    0  
@<TRIPOS>MOLECULE
ligand_39
    29    33     1     0     0
SMALL
USER_CHARGES
****
Generated from the CSD

@<TRIPOS>ATOM
     1 C1     -12.1900   9.4700  48.6410   C.3       1 RES1   0.0000
     2 C2     -12.4260   8.5850  47.4360   C.3       1 RES1   0.0000
     3 C3     -11.2122   8.3554  46.5415   C.3       1 RES1   0.0000
     4 C4     -11.2500   6.9368  46.0793   C.3       1 RES1   0.0000
     5 C5     -12.5323   6.3625  46.6305   C.3       1 RES1   0.0000
     6 N6     -12.8320   7.1889  47.8262   N.3       1 RES1   1.0000
     7 C7     -14.2284   7.0517  48.2674   C.3       1 RES1   0.0000
     8 C8     -14.5849   5.6373  48.5952   C.2       1 RES1   0.0000
     9 N9     -14.4499   5.1295  49.8409   N.2       1 RES1   0.0000
    10 C10    -14.9216   3.8288  49.8035   C.2       1 RES1   0.0000
    11 C11    -15.0005   2.8243  50.7667   C.2       1 RES1   0.0000
    12 C12    -15.5415   1.5984  50.3971   C.2       1 RES1   0.0000
    13 C13    -15.9923   1.3827  49.0866   C.2       1 RES1   0.0000
    14 N14    -16.4974   0.1059  48.7460   N.am      1 RES1   0.0000
    15 C15    -17.0132  -0.2966  47.5562   C.2       1 RES1   0.0000
    16 O16    -17.1766   0.4554  46.5975   O.2       1 RES1   0.0000
    17 C17    -17.2779  -1.7597  47.4273   C.2       1 RES1   0.0000
    18 C18    -16.5224  -2.6527  48.1939   C.2       1 RES1   0.0000
    19 C19    -16.7368  -4.0223  48.1197   C.2       1 RES1   0.0000
    20 C20    -17.7367  -4.4852  47.2834   C.2       1 RES1   0.0000
    21 C21    -18.5426  -3.6093  46.5424   C.2       1 RES1   0.0000
    22 C22    -19.4524  -4.4633  45.8589   C.2       1 RES1   0.0000
    23 N23    -19.2131  -5.7294  46.1266   N.2       1 RES1   0.0000
    24 N24    -18.1489  -5.7407  46.9817   N.pl3     1 RES1   0.0000
    25 C25    -17.5437  -7.0005  47.3745   C.3       1 RES1   0.0000
    26 C26    -18.2900  -2.2406  46.5910   C.2       1 RES1   0.0000
    27 C27    -15.8902   2.3964  48.1290   C.2       1 RES1   0.0000
    28 C28    -15.3452   3.6250  48.4935   C.2       1 RES1   0.0000
    29 N29    -15.1073   4.7754  47.7426   N.2       1 RES1   0.0000
@<TRIPOS>BOND
     1     2     1    1
     2     2     3    1
     3     3     4    1
     4     4     5    1
     5     5     6    1
     6     6     7    1
     7     7     8    1
     8     8     9    2
     9     9    10    1
    10    10    11    2
    11    11    12    1
    12    12    13    2
    13    13    14    1
    14    14    15   am
    15    15    16    2
    16    15    17    1
    17    17    18    2
    18    18    19    1
    19    19    20    2
    20    20    21    1
    21    21    22    1
    22    22    23    2
    23    23    24    1
    24    24    25    1
    25    21    26    2
    26    13    27    1
    27    27    28    2
    28    28    29    1
    29     6     2    1
    30    29     8    1
    31    28    10    1
    32    26    17    1
    33    24    20    1
@<TRIPOS>SUBSTRUCTURE
     1 RES1        1 GROUP             0 ****  ****    0  
@<TRIPOS>MOLECULE
ligand_40
    29    33     1     0     0
SMALL
USER_CHARGES
****
Generated from the CSD

@<TRIPOS>ATOM
     1 C1     -12.1900   9.4700  48.6410   C.3       1 RES1   0.0000
     2 C2     -12.4260   8.5850  47.4360   C.3       1 RES1   0.0000
     3 C3     -11.2122   8.3554  46.5415   C.3       1 RES1   0.0000
     4 C4     -11.2500   6.9368  46.0793   C.3       1 RES1   0.0000
     5 C5     -12.5323   6.3625  46.6305   C.3       1 RES1   0.0000
     6 N6     -12.8320   7.1889  47.8262   N.3       1 RES1   1.0000
     7 C7     -14.2284   7.0517  48.2674   C.3       1 RES1   0.0000
     8 C8     -14.5849   5.6373  48.5952   C.2       1 RES1   0.0000
     9 N9     -15.1010   4.7917  47.6752   N.2       1 RES1   0.0000
    10 C10    -15.2546   3.5627  48.2930   C.2       1 RES1   0.0000
    11 C11    -15.7626   2.3412  47.8536   C.2       1 RES1   0.0000
    12 C12    -15.7761   1.2745  48.7448   C.2       1 RES1   0.0000
    13 C13    -15.2922   1.4300  50.0520   C.2       1 RES1   0.0000
    14 N14    -15.3641   0.3279  50.9361   N.am      1 RES1   0.0000
    15 C15    -15.8839  -0.9029  50.6938   C.2       1 RES1   0.0000
    16 O16    -16.4200  -1.2171  49.6331   O.2       1 RES1   0.0000
    17 C17    -15.6697  -1.9184  51.7663   C.2       1 RES1   0.0000
    18 C18    -16.5580  -2.9941  51.8648   C.2       1 RES1   0.0000
    19 C19    -16.3967  -3.9718  52.8371   C.2       1 RES1   0.0000
    20 C20    -15.3173  -3.8705  53.6963   C.2       1 RES1   0.0000
    21 C21    -14.3833  -2.8305  53.5875   C.2       1 RES1   0.0000
    22 C22    -13.4306  -3.1068  54.6074   C.2       1 RES1   0.0000
    23 N23    -13.7588  -4.1832  55.2898   N.2       1 RES1   0.0000
    24 N24    -14.9253  -4.6361  54.7438   N.pl3     1 RES1   0.0000
    25 C25    -15.6320  -5.7474  55.3547   C.3       1 RES1   0.0000
    26 C26    -14.5792  -1.8317  52.6370   C.2       1 RES1   0.0000
    27 C27    -14.8015   2.6671  50.4808   C.2       1 RES1   0.0000
    28 C28    -14.7896   3.7398  49.5929   C.2       1 RES1   0.0000
    29 N29    -14.3870   5.0631  49.7674   N.2       1 RES1   0.0000
@<TRIPOS>BOND
     1     2     1    1
     2     2     3    1
     3     3     4    1
     4     4     5    1
     5     5     6    1
     6     6     7    1
     7     7     8    1
     8     8     9    2
     9     9    10    1
    10    10    11    2
    11    11    12    1
    12    12    13    2
    13    13    14    1
    14    14    15   am
    15    15    16    2
    16    15    17    1
    17    17    18    2
    18    18    19    1
    19    19    20    2
    20    20    21    1
    21    21    22    1
    22    22    23    2
    23    23    24    1
    24    24    25    1
    25    21    26    2
    26    13    27    1
    27    27    28    2
    28    28    29    1
    29     6     2    1
    30    29     8    1
    31    28    10    1
    32    26    17    1
    33    24    20    1
@<TRIPOS>SUBSTRUCTURE
     1 RES1        1 GROUP             0 ****  ****    0  
@<TRIPOS>MOLECULE
ligand_41
    29    33     1     0     0
SMALL
USER_CHARGES
****
Generated from the CSD

@<TRIPOS>ATOM
     1 C1     -12.1900   9.4700  48.6410   C.3       1 RES1   0.0000
     2 C2     -12.4260   8.5850  47.4360   C.3       1 RES1   0.0000
     3 C3     -11.2122   8.3554  46.5415   C.3       1 RES1   0.0000
     4 C4     -11.2500   6.9368  46.0793   C.3       1 RES1   0.0000
     5 C5     -12.5323   6.3625  46.6305   C.3       1 RES1   0.0000
     6 N6     -12.8320   7.1889  47.8262   N.3       1 RES1   1.0000
     7 C7     -14.2284   7.0517  48.2674   C.3       1 RES1   0.0000
     8 C8     -14.5849   5.6373  48.5952   C.2       1 RES1   0.0000
     9 N9     -15.1010   4.7917  47.6752   N.2       1 RES1   0.0000
    10 C10    -15.2546   3.5627  48.2930   C.2       1 RES1   0.0000
    11 C11    -15.7626   2.3412  47.8536   C.2       1 RES1   0.0000
    12 C12    -15.7761   1.2745  48.7448   C.2       1 RES1   0.0000
    13 C13    -15.2922   1.4300  50.0520   C.2       1 RES1   0.0000
    14 N14    -15.3641   0.3279  50.9361   N.am      1 RES1   0.0000
    15 C15    -15.8623  -0.9103  50.6863   C.2       1 RES1   0.0000
    16 O16    -16.3310  -1.2477  49.6011   O.2       1 RES1   0.0000
    17 C17    -15.7093  -1.9040  51.7893   C.2       1 RES1   0.0000
    18 C18    -15.5146  -3.2500  51.4633   C.2       1 RES1   0.0000
    19 C19    -15.3554  -4.2123  52.4512   C.2       1 RES1   0.0000
    20 C20    -15.3698  -3.8040  53.7728   C.2       1 RES1   0.0000
    21 C21    -15.5125  -2.4547  54.1263   C.2       1 RES1   0.0000
    22 C22    -15.4376  -2.4546  55.5470   C.2       1 RES1   0.0000
    23 N23    -15.2948  -3.6749  56.0187   N.2       1 RES1   0.0000
    24 N24    -15.2752  -4.5007  54.9317   N.pl3     1 RES1   0.0000
    25 C25    -15.2591  -5.9412  55.1116   C.3       1 RES1   0.0000
    26 C26    -15.7152  -1.5040  53.1290   C.2       1 RES1   0.0000
    27 C27    -14.8015   2.6671  50.4808   C.2       1 RES1   0.0000
    28 C28    -14.7896   3.7398  49.5929   C.2       1 RES1   0.0000
    29 N29    -14.3870   5.0631  49.7674   N.2       1 RES1   0.0000
@<TRIPOS>BOND
     1     2     1    1
     2     2     3    1
     3     3     4    1
     4     4     5    1
     5     5     6    1
     6     6     7    1
     7     7     8    1
     8     8     9    2
     9     9    10    1
    10    10    11    2
    11    11    12    1
    12    12    13    2
    13    13    14    1
    14    14    15   am
    15    15    16    2
    16    15    17    1
    17    17    18    2
    18    18    19    1
    19    19    20    2
    20    20    21    1
    21    21    22    1
    22    22    23    2
    23    23    24    1
    24    24    25    1
    25    21    26    2
    26    13    27    1
    27    27    28    2
    28    28    29    1
    29     6     2    1
    30    29     8    1
    31    28    10    1
    32    26    17    1
    33    24    20    1
@<TRIPOS>SUBSTRUCTURE
     1 RES1        1 GROUP             0 ****  ****    0  
@<TRIPOS>MOLECULE
ligand_42
    29    33     1     0     0
SMALL
USER_CHARGES
****
Generated from the CSD

@<TRIPOS>ATOM
     1 C1     -12.1900   9.4700  48.6410   C.3       1 RES1   0.0000
     2 C2     -12.4260   8.5850  47.4360   C.3       1 RES1   0.0000
     3 C3     -11.2122   8.3554  46.5415   C.3       1 RES1   0.0000
     4 C4     -11.2500   6.9368  46.0793   C.3       1 RES1   0.0000
     5 C5     -12.5323   6.3625  46.6305   C.3       1 RES1   0.0000
     6 N6     -12.8320   7.1889  47.8262   N.3       1 RES1   1.0000
     7 C7     -14.2284   7.0517  48.2674   C.3       1 RES1   0.0000
     8 C8     -14.5849   5.6373  48.5952   C.2       1 RES1   0.0000
     9 N9     -15.1010   4.7917  47.6752   N.2       1 RES1   0.0000
    10 C10    -15.2546   3.5627  48.2930   C.2       1 RES1   0.0000
    11 C11    -15.7626   2.3412  47.8536   C.2       1 RES1   0.0000
    12 C12    -15.7761   1.2745  48.7448   C.2       1 RES1   0.0000
    13 C13    -15.2922   1.4300  50.0520   C.2       1 RES1   0.0000
    14 N14    -15.3641   0.3279  50.9361   N.am      1 RES1   0.0000
    15 C15    -15.8602  -0.9110  50.6857   C.2       1 RES1   0.0000
    16 O16    -16.3161  -1.2527  49.5963   O.2       1 RES1   0.0000
    17 C17    -15.7214  -1.9001  51.7947   C.2       1 RES1   0.0000
    18 C18    -15.8221  -1.4519  53.1156   C.2       1 RES1   0.0000
    19 C19    -15.7118  -2.3327  54.1830   C.2       1 RES1   0.0000
    20 C20    -15.5229  -3.6753  53.9085   C.2       1 RES1   0.0000
    21 C21    -15.4691  -4.1588  52.5936   C.2       1 RES1   0.0000
    22 C22    -15.3077  -5.5643  52.7430   C.2       1 RES1   0.0000
    23 N23    -15.2391  -5.9058  54.0121   N.2       1 RES1   0.0000
    24 N24    -15.3495  -4.7451  54.7226   N.pl3     1 RES1   0.0000
    25 C25    -15.1813  -4.7552  56.1645   C.3       1 RES1   0.0000
    26 C26    -15.5370  -3.2608  51.5313   C.2       1 RES1   0.0000
    27 C27    -14.8015   2.6671  50.4808   C.2       1 RES1   0.0000
    28 C28    -14.7896   3.7398  49.5929   C.2       1 RES1   0.0000
    29 N29    -14.3870   5.0631  49.7674   N.2       1 RES1   0.0000
@<TRIPOS>BOND
     1     2     1    1
     2     2     3    1
     3     3     4    1
     4     4     5    1
     5     5     6    1
     6     6     7    1
     7     7     8    1
     8     8     9    2
     9     9    10    1
    10    10    11    2
    11    11    12    1
    12    12    13    2
    13    13    14    1
    14    14    15   am
    15    15    16    2
    16    15    17    1
    17    17    18    2
    18    18    19    1
    19    19    20    2
    20    20    21    1
    21    21    22    1
    22    22    23    2
    23    23    24    1
    24    24    25    1
    25    21    26    2
    26    13    27    1
    27    27    28    2
    28    28    29    1
    29     6     2    1
    30    29     8    1
    31    28    10    1
    32    26    17    1
    33    24    20    1
@<TRIPOS>SUBSTRUCTURE
     1 RES1        1 GROUP             0 ****  ****    0  
@<TRIPOS>MOLECULE
ligand_43
    29    33     1     0     0
SMALL
USER_CHARGES
****
Generated from the CSD

@<TRIPOS>ATOM
     1 C1     -12.1900   9.4700  48.6410   C.3       1 RES1   0.0000
     2 C2     -12.4260   8.5850  47.4360   C.3       1 RES1   0.0000
     3 C3     -11.2122   8.3554  46.5415   C.3       1 RES1   0.0000
     4 C4     -11.2500   6.9368  46.0793   C.3       1 RES1   0.0000
     5 C5     -12.5323   6.3625  46.6305   C.3       1 RES1   0.0000
     6 N6     -12.8320   7.1889  47.8262   N.3       1 RES1   1.0000
     7 C7     -14.2284   7.0517  48.2674   C.3       1 RES1   0.0000
     8 C8     -14.5849   5.6373  48.5952   C.2       1 RES1   0.0000
     9 N9     -15.1010   4.7917  47.6752   N.2       1 RES1   0.0000
    10 C10    -15.2546   3.5627  48.2930   C.2       1 RES1   0.0000
    11 C11    -15.7626   2.3412  47.8536   C.2       1 RES1   0.0000
    12 C12    -15.7761   1.2745  48.7448   C.2       1 RES1   0.0000
    13 C13    -15.2922   1.4300  50.0520   C.2       1 RES1   0.0000
    14 N14    -15.3641   0.3279  50.9361   N.am      1 RES1   0.0000
    15 C15    -15.8943  -0.8992  50.6976   C.2       1 RES1   0.0000
    16 O16    -16.4714  -1.1987  49.6543   O.2       1 RES1   0.0000
    17 C17    -15.6401  -1.9292  51.7473   C.2       1 RES1   0.0000
    18 C18    -14.5011  -1.8086  52.5498   C.2       1 RES1   0.0000
    19 C19    -14.2247  -2.7332  53.5478   C.2       1 RES1   0.0000
    20 C20    -15.1190  -3.7695  53.7476   C.2       1 RES1   0.0000
    21 C21    -16.2940  -3.8857  52.9916   C.2       1 RES1   0.0000
    22 C22    -16.9413  -5.0353  53.5239   C.2       1 RES1   0.0000
    23 N23    -16.2275  -5.5850  54.4833   N.2       1 RES1   0.0000
    24 N24    -15.1027  -4.8206  54.6033   N.pl3     1 RES1   0.0000
    25 C25    -14.0338  -5.2328  55.4950   C.3       1 RES1   0.0000
    26 C26    -16.5391  -2.9778  51.9644   C.2       1 RES1   0.0000
    27 C27    -14.8015   2.6671  50.4808   C.2       1 RES1   0.0000
    28 C28    -14.7896   3.7398  49.5929   C.2       1 RES1   0.0000
    29 N29    -14.3870   5.0631  49.7674   N.2       1 RES1   0.0000
@<TRIPOS>BOND
     1     2     1    1
     2     2     3    1
     3     3     4    1
     4     4     5    1
     5     5     6    1
     6     6     7    1
     7     7     8    1
     8     8     9    2
     9     9    10    1
    10    10    11    2
    11    11    12    1
    12    12    13    2
    13    13    14    1
    14    14    15   am
    15    15    16    2
    16    15    17    1
    17    17    18    2
    18    18    19    1
    19    19    20    2
    20    20    21    1
    21    21    22    1
    22    22    23    2
    23    23    24    1
    24    24    25    1
    25    21    26    2
    26    13    27    1
    27    27    28    2
    28    28    29    1
    29     6     2    1
    30    29     8    1
    31    28    10    1
    32    26    17    1
    33    24    20    1
@<TRIPOS>SUBSTRUCTURE
     1 RES1        1 GROUP             0 ****  ****    0  
@<TRIPOS>MOLECULE
ligand_44
    29    33     1     0     0
SMALL
USER_CHARGES
****
Generated from the CSD

@<TRIPOS>ATOM
     1 C1     -12.1900   9.4700  48.6410   C.3       1 RES1   0.0000
     2 C2     -12.4260   8.5850  47.4360   C.3       1 RES1   0.0000
     3 C3     -11.2122   8.3554  46.5415   C.3       1 RES1   0.0000
     4 C4     -11.2500   6.9368  46.0793   C.3       1 RES1   0.0000
     5 C5     -12.5323   6.3625  46.6305   C.3       1 RES1   0.0000
     6 N6     -12.8320   7.1889  47.8262   N.3       1 RES1   1.0000
     7 C7     -14.2284   7.0517  48.2674   C.3       1 RES1   0.0000
     8 C8     -14.5849   5.6373  48.5952   C.2       1 RES1   0.0000
     9 N9     -14.4499   5.1295  49.8409   N.2       1 RES1   0.0000
    10 C10    -14.9216   3.8288  49.8035   C.2       1 RES1   0.0000
    11 C11    -15.0005   2.8243  50.7667   C.2       1 RES1   0.0000
    12 C12    -15.5415   1.5984  50.3971   C.2       1 RES1   0.0000
    13 C13    -15.9923   1.3827  49.0866   C.2       1 RES1   0.0000
    14 N14    -16.4974   0.1059  48.7460   N.am      1 RES1   0.0000
    15 C15    -16.5842  -0.9946  49.5365   C.2       1 RES1   0.0000
    16 O16    -16.1776  -1.0318  50.6960   O.2       1 RES1   0.0000
    17 C17    -17.3163  -2.1559  48.9510   C.2       1 RES1   0.0000
    18 C18    -17.0299  -3.4414  49.4215   C.2       1 RES1   0.0000
    19 C19    -17.6908  -4.5539  48.9184   C.2       1 RES1   0.0000
    20 C20    -18.6618  -4.3588  47.9527   C.2       1 RES1   0.0000
    21 C21    -19.0043  -3.0769  47.4998   C.2       1 RES1   0.0000
    22 C22    -20.0478  -3.3043  46.5598   C.2       1 RES1   0.0000
    23 N23    -20.2996  -4.5891  46.4260   N.2       1 RES1   0.0000
    24 N24    -19.4351  -5.2332  47.2637   N.pl3     1 RES1   0.0000
    25 C25    -19.3625  -6.6831  47.2608   C.3       1 RES1   0.0000
    26 C26    -18.3047  -1.9723  47.9793   C.2       1 RES1   0.0000
    27 C27    -15.8902   2.3964  48.1290   C.2       1 RES1   0.0000
    28 C28    -15.3452   3.6250  48.4935   C.2       1 RES1   0.0000
    29 N29    -15.1073   4.7754  47.7426   N.2       1 RES1   0.0000
@<TRIPOS>BOND
     1     2     1    1
     2     2     3    1
     3     3     4    1
     4     4     5    1
     5     5     6    1
     6     6     7    1
     7     7     8    1
     8     8     9    2
     9     9    10    1
    10    10    11    2
    11    11    12    1
    12    12    13    2
    13    13    14    1
    14    14    15   am
    15    15    16    2
    16    15    17    1
    17    17    18    2
    18    18    19    1
    19    19    20    2
    20    20    21    1
    21    21    22    1
    22    22    23    2
    23    23    24    1
    24    24    25    1
    25    21    26    2
    26    13    27    1
    27    27    28    2
    28    28    29    1
    29     6     2    1
    30    29     8    1
    31    28    10    1
    32    26    17    1
    33    24    20    1
@<TRIPOS>SUBSTRUCTURE
     1 RES1        1 GROUP             0 ****  ****    0  
@<TRIPOS>MOLECULE
ligand_45
    29    33     1     0     0
SMALL
USER_CHARGES
****
Generated from the CSD

@<TRIPOS>ATOM
     1 C1     -12.1900   9.4700  48.6410   C.3       1 RES1   0.0000
     2 C2     -12.4260   8.5850  47.4360   C.3       1 RES1   0.0000
     3 C3     -11.2122   8.3554  46.5415   C.3       1 RES1   0.0000
     4 C4     -11.2500   6.9368  46.0793   C.3       1 RES1   0.0000
     5 C5     -12.5323   6.3625  46.6305   C.3       1 RES1   0.0000
     6 N6     -12.8320   7.1889  47.8262   N.3       1 RES1   1.0000
     7 C7     -14.2284   7.0517  48.2674   C.3       1 RES1   0.0000
     8 C8     -14.5849   5.6373  48.5952   C.2       1 RES1   0.0000
     9 N9     -14.4499   5.1295  49.8409   N.2       1 RES1   0.0000
    10 C10    -14.9216   3.8288  49.8035   C.2       1 RES1   0.0000
    11 C11    -15.0005   2.8243  50.7667   C.2       1 RES1   0.0000
    12 C12    -15.5415   1.5984  50.3971   C.2       1 RES1   0.0000
    13 C13    -15.9923   1.3827  49.0866   C.2       1 RES1   0.0000
    14 N14    -16.4974   0.1059  48.7460   N.am      1 RES1   0.0000
    15 C15    -16.6062  -0.9878  49.5433   C.2       1 RES1   0.0000
    16 O16    -16.2681  -1.0031  50.7251   O.2       1 RES1   0.0000
    17 C17    -17.2763  -2.1719  48.9298   C.2       1 RES1   0.0000
    18 C18    -18.0428  -3.0112  49.7446   C.2       1 RES1   0.0000
    19 C19    -18.6958  -4.1190  49.2214   C.2       1 RES1   0.0000
    20 C20    -18.5902  -4.3619  47.8637   C.2       1 RES1   0.0000
    21 C21    -17.8703  -3.5085  47.0157   C.2       1 RES1   0.0000
    22 C22    -18.0382  -4.0763  45.7220   C.2       1 RES1   0.0000
    23 N23    -18.7581  -5.1768  45.7723   N.2       1 RES1   0.0000
    24 N24    -19.0765  -5.3608  47.0872   N.pl3     1 RES1   0.0000
    25 C25    -19.7643  -6.5680  47.5078   C.3       1 RES1   0.0000
    26 C26    -17.1834  -2.4252  47.5580   C.2       1 RES1   0.0000
    27 C27    -15.8902   2.3964  48.1290   C.2       1 RES1   0.0000
    28 C28    -15.3452   3.6250  48.4935   C.2       1 RES1   0.0000
    29 N29    -15.1073   4.7754  47.7426   N.2       1 RES1   0.0000
@<TRIPOS>BOND
     1     2     1    1
     2     2     3    1
     3     3     4    1
     4     4     5    1
     5     5     6    1
     6     6     7    1
     7     7     8    1
     8     8     9    2
     9     9    10    1
    10    10    11    2
    11    11    12    1
    12    12    13    2
    13    13    14    1
    14    14    15   am
    15    15    16    2
    16    15    17    1
    17    17    18    2
    18    18    19    1
    19    19    20    2
    20    20    21    1
    21    21    22    1
    22    22    23    2
    23    23    24    1
    24    24    25    1
    25    21    26    2
    26    13    27    1
    27    27    28    2
    28    28    29    1
    29     6     2    1
    30    29     8    1
    31    28    10    1
    32    26    17    1
    33    24    20    1
@<TRIPOS>SUBSTRUCTURE
     1 RES1        1 GROUP             0 ****  ****    0  
@<TRIPOS>MOLECULE
ligand_46
    29    33     1     0     0
SMALL
USER_CHARGES
****
Generated from the CSD

@<TRIPOS>ATOM
     1 C1     -12.1900   9.4700  48.6410   C.3       1 RES1   0.0000
     2 C2     -12.4260   8.5850  47.4360   C.3       1 RES1   0.0000
     3 C3     -11.2122   8.3554  46.5415   C.3       1 RES1   0.0000
     4 C4     -11.2500   6.9368  46.0793   C.3       1 RES1   0.0000
     5 C5     -12.5323   6.3625  46.6305   C.3       1 RES1   0.0000
     6 N6     -12.8320   7.1889  47.8262   N.3       1 RES1   1.0000
     7 C7     -14.2284   7.0517  48.2674   C.3       1 RES1   0.0000
     8 C8     -14.5849   5.6373  48.5952   C.2       1 RES1   0.0000
     9 N9     -14.4499   5.1295  49.8409   N.2       1 RES1   0.0000
    10 C10    -14.9216   3.8288  49.8035   C.2       1 RES1   0.0000
    11 C11    -15.0005   2.8243  50.7667   C.2       1 RES1   0.0000
    12 C12    -15.5415   1.5984  50.3971   C.2       1 RES1   0.0000
    13 C13    -15.9923   1.3827  49.0866   C.2       1 RES1   0.0000
    14 N14    -16.4974   0.1059  48.7460   N.am      1 RES1   0.0000
    15 C15    -16.6082  -0.9871  49.5439   C.2       1 RES1   0.0000
    16 O16    -16.2833  -0.9984  50.7295   O.2       1 RES1   0.0000
    17 C17    -17.2641  -2.1764  48.9251   C.2       1 RES1   0.0000
    18 C18    -17.0639  -2.4257  47.5636   C.2       1 RES1   0.0000
    19 C19    -17.6419  -3.5244  46.9423   C.2       1 RES1   0.0000
    20 C20    -18.4054  -4.3855  47.7099   C.2       1 RES1   0.0000
    21 C21    -18.5807  -4.1873  49.0868   C.2       1 RES1   0.0000
    22 C22    -19.3790  -5.2897  49.5009   C.2       1 RES1   0.0000
    23 N23    -19.6872  -6.0660  48.4838   N.2       1 RES1   0.0000
    24 N24    -19.1079  -5.4984  47.3856   N.pl3     1 RES1   0.0000
    25 C25    -19.3646  -6.0418  46.0641   C.3       1 RES1   0.0000
    26 C26    -18.0327  -3.0584  49.6907   C.2       1 RES1   0.0000
    27 C27    -15.8902   2.3964  48.1290   C.2       1 RES1   0.0000
    28 C28    -15.3452   3.6250  48.4935   C.2       1 RES1   0.0000
    29 N29    -15.1073   4.7754  47.7426   N.2       1 RES1   0.0000
@<TRIPOS>BOND
     1     2     1    1
     2     2     3    1
     3     3     4    1
     4     4     5    1
     5     5     6    1
     6     6     7    1
     7     7     8    1
     8     8     9    2
     9     9    10    1
    10    10    11    2
    11    11    12    1
    12    12    13    2
    13    13    14    1
    14    14    15   am
    15    15    16    2
    16    15    17    1
    17    17    18    2
    18    18    19    1
    19    19    20    2
    20    20    21    1
    21    21    22    1
    22    22    23    2
    23    23    24    1
    24    24    25    1
    25    21    26    2
    26    13    27    1
    27    27    28    2
    28    28    29    1
    29     6     2    1
    30    29     8    1
    31    28    10    1
    32    26    17    1
    33    24    20    1
@<TRIPOS>SUBSTRUCTURE
     1 RES1        1 GROUP             0 ****  ****    0  
@<TRIPOS>MOLECULE
ligand_47
    29    33     1     0     0
SMALL
USER_CHARGES
****
Generated from the CSD

@<TRIPOS>ATOM
     1 C1     -12.1900   9.4700  48.6410   C.3       1 RES1   0.0000
     2 C2     -12.4260   8.5850  47.4360   C.3       1 RES1   0.0000
     3 C3     -11.2122   8.3554  46.5415   C.3       1 RES1   0.0000
     4 C4     -11.2500   6.9368  46.0793   C.3       1 RES1   0.0000
     5 C5     -12.5323   6.3625  46.6305   C.3       1 RES1   0.0000
     6 N6     -12.8320   7.1889  47.8262   N.3       1 RES1   1.0000
     7 C7     -14.2284   7.0517  48.2674   C.3       1 RES1   0.0000
     8 C8     -14.5849   5.6373  48.5952   C.2       1 RES1   0.0000
     9 N9     -14.4499   5.1295  49.8409   N.2       1 RES1   0.0000
    10 C10    -14.9216   3.8288  49.8035   C.2       1 RES1   0.0000
    11 C11    -15.0005   2.8243  50.7667   C.2       1 RES1   0.0000
    12 C12    -15.5415   1.5984  50.3971   C.2       1 RES1   0.0000
    13 C13    -15.9923   1.3827  49.0866   C.2       1 RES1   0.0000
    14 N14    -16.4974   0.1059  48.7460   N.am      1 RES1   0.0000
    15 C15    -16.5735  -0.9979  49.5330   C.2       1 RES1   0.0000
    16 O16    -16.1251  -1.0491  50.6765   O.2       1 RES1   0.0000
    17 C17    -17.3462  -2.1433  48.9685   C.2       1 RES1   0.0000
    18 C18    -18.3570  -1.8825  48.0379   C.2       1 RES1   0.0000
    19 C19    -19.0973  -2.9128  47.4743   C.2       1 RES1   0.0000
    20 C20    -18.7948  -4.2127  47.8380   C.2       1 RES1   0.0000
    21 C21    -17.7533  -4.5056  48.7298   C.2       1 RES1   0.0000
    22 C22    -17.7454  -5.9263  48.8052   C.2       1 RES1   0.0000
    23 N23    -18.6983  -6.4501  48.0639   N.2       1 RES1   0.0000
    24 N24    -19.3525  -5.3981  47.4900   N.pl3     1 RES1   0.0000
    25 C25    -20.5521  -5.6272  46.7051   C.3       1 RES1   0.0000
    26 C26    -17.0463  -3.4623  49.3223   C.2       1 RES1   0.0000
    27 C27    -15.8902   2.3964  48.1290   C.2       1 RES1   0.0000
    28 C28    -15.3452   3.6250  48.4935   C.2       1 RES1   0.0000
    29 N29    -15.1073   4.7754  47.7426   N.2       1 RES1   0.0000
@<TRIPOS>BOND
     1     2     1    1
     2     2     3    1
     3     3     4    1
     4     4     5    1
     5     5     6    1
     6     6     7    1
     7     7     8    1
     8     8     9    2
     9     9    10    1
    10    10    11    2
    11    11    12    1
    12    12    13    2
    13    13    14    1
    14    14    15   am
    15    15    16    2
    16    15    17    1
    17    17    18    2
    18    18    19    1
    19    19    20    2
    20    20    21    1
    21    21    22    1
    22    22    23    2
    23    23    24    1
    24    24    25    1
    25    21    26    2
    26    13    27    1
    27    27    28    2
    28    28    29    1
    29     6     2    1
    30    29     8    1
    31    28    10    1
    32    26    17    1
    33    24    20    1
@<TRIPOS>SUBSTRUCTURE
     1 RES1        1 GROUP             0 ****  ****    0  
@<TRIPOS>MOLECULE
ligand_48
    29    33     1     0     0
SMALL
USER_CHARGES
****
Generated from the CSD

@<TRIPOS>ATOM
     1 C1     -12.2346   9.5187  48.5528   C.3       1 RES1   0.0000
     2 C2     -12.4545   8.5870  47.3804   C.3       1 RES1   0.0000
     3 C3     -11.2367   8.3478  46.4938   C.3       1 RES1   0.0000
     4 C4     -11.2486   6.9132  46.0826   C.3       1 RES1   0.0000
     5 C5     -12.5201   6.3356  46.6549   C.3       1 RES1   0.0000
     6 N6     -12.8348   7.1986  47.8205   N.3       1 RES1   1.0000
     7 C7     -14.2284   7.0517  48.2674   C.3       1 RES1   0.0000
     8 C8     -14.4833   7.7389  49.5704   C.2       1 RES1   0.0000
     9 N9     -13.5858   7.7242  50.5814   N.2       1 RES1   0.0000
    10 C10    -14.1101   8.4978  51.6023   C.2       1 RES1   0.0000
    11 C11    -13.6511   8.8127  52.8803   C.2       1 RES1   0.0000
    12 C12    -14.4365   9.6372  53.6776   C.2       1 RES1   0.0000
    13 C13    -15.6595  10.1342  53.2039   C.2       1 RES1   0.0000
    14 N14    -16.4439  10.9360  54.0661   N.am      1 RES1   0.0000
    15 C15    -17.2893  11.9434  53.7285   C.2       1 RES1   0.0000
    16 O16    -17.4670  12.3224  52.5726   O.2       1 RES1   0.0000
    17 C17    -18.0978  12.5120  54.8467   C.2       1 RES1   0.0000
    18 C18    -18.5763  13.8214  54.7362   C.2       1 RES1   0.0000
    19 C19    -19.3424  14.3933  55.7428   C.2       1 RES1   0.0000
    20 C20    -19.6440  13.6260  56.8536   C.2       1 RES1   0.0000
    21 C21    -19.2201  12.2944  56.9672   C.2       1 RES1   0.0000
    22 C22    -19.7597  11.8595  58.2097   C.2       1 RES1   0.0000
    23 N23    -20.4187  12.8275  58.8102   N.2       1 RES1   0.0000
    24 N24    -20.3280  13.9136  57.9879   N.pl3     1 RES1   0.0000
    25 C25    -20.8445  15.1996  58.4204   C.3       1 RES1   0.0000
    26 C26    -18.4156  11.7453  55.9719   C.2       1 RES1   0.0000
    27 C27    -16.1121   9.7944  51.9254   C.2       1 RES1   0.0000
    28 C28    -15.3308   8.9655  51.1244   C.2       1 RES1   0.0000
    29 N29    -15.5547   8.4598  49.8446   N.2       1 RES1   0.0000
@<TRIPOS>BOND
     1     2     1    1
     2     2     3    1
     3     3     4    1
     4     4     5    1
     5     5     6    1
     6     6     7    1
     7     7     8    1
     8     8     9    2
     9     9    10    1
    10    10    11    2
    11    11    12    1
    12    12    13    2
    13    13    14    1
    14    14    15   am
    15    15    16    2
    16    15    17    1
    17    17    18    2
    18    18    19    1
    19    19    20    2
    20    20    21    1
    21    21    22    1
    22    22    23    2
    23    23    24    1
    24    24    25    1
    25    21    26    2
    26    13    27    1
    27    27    28    2
    28    28    29    1
    29     6     2    1
    30    29     8    1
    31    28    10    1
    32    26    17    1
    33    24    20    1
@<TRIPOS>SUBSTRUCTURE
     1 RES1        1 GROUP             0 ****  ****    0  
@<TRIPOS>MOLECULE
ligand_49
    29    33     1     0     0
SMALL
USER_CHARGES
****
Generated from the CSD

@<TRIPOS>ATOM
     1 C1     -12.2327   9.5169  48.5548   C.3       1 RES1   0.0000
     2 C2     -12.4529   8.5861  47.3818   C.3       1 RES1   0.0000
     3 C3     -11.2351   8.3463  46.4954   C.3       1 RES1   0.0000
     4 C4     -11.2480   6.9120  46.0834   C.3       1 RES1   0.0000
     5 C5     -12.5202   6.3351  46.6551   C.3       1 RES1   0.0000
     6 N6     -12.8345   7.1977  47.8211   N.3       1 RES1   1.0000
     7 C7     -14.2284   7.0517  48.2674   C.3       1 RES1   0.0000
     8 C8     -14.4833   7.7389  49.5704   C.2       1 RES1   0.0000
     9 N9     -13.5858   7.7242  50.5814   N.2       1 RES1   0.0000
    10 C10    -14.1101   8.4978  51.6023   C.2       1 RES1   0.0000
    11 C11    -13.6511   8.8127  52.8803   C.2       1 RES1   0.0000
    12 C12    -14.4365   9.6372  53.6776   C.2       1 RES1   0.0000
    13 C13    -15.6595  10.1342  53.2039   C.2       1 RES1   0.0000
    14 N14    -16.4439  10.9360  54.0661   N.am      1 RES1   0.0000
    15 C15    -17.2848  11.9473  53.7289   C.2       1 RES1   0.0000
    16 O16    -17.4791  12.3116  52.5710   O.2       1 RES1   0.0000
    17 C17    -18.0675  12.5401  54.8529   C.2       1 RES1   0.0000
    18 C18    -19.3573  13.0177  54.5994   C.2       1 RES1   0.0000
    19 C19    -20.1312  13.5677  55.6122   C.2       1 RES1   0.0000
    20 C20    -19.6041  13.6112  56.8904   C.2       1 RES1   0.0000
    21 C21    -18.3342  13.0936  57.1823   C.2       1 RES1   0.0000
    22 C22    -18.1878  13.2931  58.5833   C.2       1 RES1   0.0000
    23 N23    -19.2407  13.8957  59.0934   N.2       1 RES1   0.0000
    24 N24    -20.0966  14.1085  58.0511   N.pl3     1 RES1   0.0000
    25 C25    -21.3115  14.8775  58.2518   C.3       1 RES1   0.0000
    26 C26    -17.5494  12.5841  56.1508   C.2       1 RES1   0.0000
    27 C27    -16.1121   9.7944  51.9254   C.2       1 RES1   0.0000
    28 C28    -15.3308   8.9655  51.1244   C.2       1 RES1   0.0000
    29 N29    -15.5547   8.4598  49.8446   N.2       1 RES1   0.0000
@<TRIPOS>BOND
     1     2     1    1
     2     2     3    1
     3     3     4    1
     4     4     5    1
     5     5     6    1
     6     6     7    1
     7     7     8    1
     8     8     9    2
     9     9    10    1
    10    10    11    2
    11    11    12    1
    12    12    13    2
    13    13    14    1
    14    14    15   am
    15    15    16    2
    16    15    17    1
    17    17    18    2
    18    18    19    1
    19    19    20    2
    20    20    21    1
    21    21    22    1
    22    22    23    2
    23    23    24    1
    24    24    25    1
    25    21    26    2
    26    13    27    1
    27    27    28    2
    28    28    29    1
    29     6     2    1
    30    29     8    1
    31    28    10    1
    32    26    17    1
    33    24    20    1
@<TRIPOS>SUBSTRUCTURE
     1 RES1        1 GROUP             0 ****  ****    0  
@<TRIPOS>MOLECULE
ligand_50
    29    33     1     0     0
SMALL
USER_CHARGES
****
Generated from the CSD

@<TRIPOS>ATOM
     1 C1     -12.2323   9.5167  48.5545   C.3       1 RES1   0.0000
     2 C2     -12.4525   8.5855  47.3817   C.3       1 RES1   0.0000
     3 C3     -11.2345   8.3453  46.4956   C.3       1 RES1   0.0000
     4 C4     -11.2476   6.9108  46.0840   C.3       1 RES1   0.0000
     5 C5     -12.5200   6.3343  46.6556   C.3       1 RES1   0.0000
     6 N6     -12.8344   7.1973  47.8213   N.3       1 RES1   1.0000
     7 C7     -14.2284   7.0517  48.2674   C.3       1 RES1   0.0000
     8 C8     -14.4833   7.7389  49.5704   C.2       1 RES1   0.0000
     9 N9     -13.5858   7.7242  50.5814   N.2       1 RES1   0.0000
    10 C10    -14.1101   8.4978  51.6023   C.2       1 RES1   0.0000
    11 C11    -13.6511   8.8127  52.8803   C.2       1 RES1   0.0000
    12 C12    -14.4365   9.6372  53.6776   C.2       1 RES1   0.0000
    13 C13    -15.6595  10.1342  53.2039   C.2       1 RES1   0.0000
    14 N14    -16.4439  10.9360  54.0661   N.am      1 RES1   0.0000
    15 C15    -17.2835  11.9484  53.7291   C.2       1 RES1   0.0000
    16 O16    -17.4854  12.3062  52.5704   O.2       1 RES1   0.0000
    17 C17    -18.0553  12.5513  54.8553   C.2       1 RES1   0.0000
    18 C18    -17.4510  12.6472  56.1129   C.2       1 RES1   0.0000
    19 C19    -18.1213  13.2099  57.1905   C.2       1 RES1   0.0000
    20 C20    -19.3991  13.6984  56.9855   C.2       1 RES1   0.0000
    21 C21    -20.0093  13.6610  55.7237   C.2       1 RES1   0.0000
    22 C22    -21.2723  14.2835  55.9263   C.2       1 RES1   0.0000
    23 N23    -21.4346  14.6384  57.1832   N.2       1 RES1   0.0000
    24 N24    -20.2954  14.2596  57.8333   N.pl3     1 RES1   0.0000
    25 C25    -20.2023  14.3914  59.2761   C.3       1 RES1   0.0000
    26 C26    -19.3449  13.0549  54.6603   C.2       1 RES1   0.0000
    27 C27    -16.1121   9.7944  51.9254   C.2       1 RES1   0.0000
    28 C28    -15.3308   8.9655  51.1244   C.2       1 RES1   0.0000
    29 N29    -15.5547   8.4598  49.8446   N.2       1 RES1   0.0000
@<TRIPOS>BOND
     1     2     1    1
     2     2     3    1
     3     3     4    1
     4     4     5    1
     5     5     6    1
     6     6     7    1
     7     7     8    1
     8     8     9    2
     9     9    10    1
    10    10    11    2
    11    11    12    1
    12    12    13    2
    13    13    14    1
    14    14    15   am
    15    15    16    2
    16    15    17    1
    17    17    18    2
    18    18    19    1
    19    19    20    2
    20    20    21    1
    21    21    22    1
    22    22    23    2
    23    23    24    1
    24    24    25    1
    25    21    26    2
    26    13    27    1
    27    27    28    2
    28    28    29    1
    29     6     2    1
    30    29     8    1
    31    28    10    1
    32    26    17    1
    33    24    20    1
@<TRIPOS>SUBSTRUCTURE
     1 RES1        1 GROUP             0 ****  ****    0  
@<TRIPOS>MOLECULE
ligand_51
    29    33     1     0     0
SMALL
USER_CHARGES
****
Generated from the CSD

@<TRIPOS>ATOM
     1 C1     -12.2322   9.5166  48.5543   C.3       1 RES1   0.0000
     2 C2     -12.4524   8.5854  47.3816   C.3       1 RES1   0.0000
     3 C3     -11.2344   8.3450  46.4957   C.3       1 RES1   0.0000
     4 C4     -11.2475   6.9105  46.0842   C.3       1 RES1   0.0000
     5 C5     -12.5200   6.3341  46.6558   C.3       1 RES1   0.0000
     6 N6     -12.8344   7.1972  47.8213   N.3       1 RES1   1.0000
     7 C7     -14.2284   7.0517  48.2674   C.3       1 RES1   0.0000
     8 C8     -14.4833   7.7389  49.5704   C.2       1 RES1   0.0000
     9 N9     -13.5858   7.7242  50.5814   N.2       1 RES1   0.0000
    10 C10    -14.1101   8.4978  51.6023   C.2       1 RES1   0.0000
    11 C11    -13.6511   8.8127  52.8803   C.2       1 RES1   0.0000
    12 C12    -14.4365   9.6372  53.6776   C.2       1 RES1   0.0000
    13 C13    -15.6595  10.1342  53.2039   C.2       1 RES1   0.0000
    14 N14    -16.4439  10.9360  54.0661   N.am      1 RES1   0.0000
    15 C15    -17.2903  11.9425  53.7284   C.2       1 RES1   0.0000
    16 O16    -17.4517  12.3361  52.5750   O.2       1 RES1   0.0000
    17 C17    -18.1207  12.4906  54.8408   C.2       1 RES1   0.0000
    18 C18    -18.4288  11.6623  55.9247   C.2       1 RES1   0.0000
    19 C19    -19.1880  12.1267  56.9902   C.2       1 RES1   0.0000
    20 C20    -19.6153  13.4421  56.9668   C.2       1 RES1   0.0000
    21 C21    -19.2783  14.3085  55.9173   C.2       1 RES1   0.0000
    22 C22    -19.8656  15.5508  56.2857   C.2       1 RES1   0.0000
    23 N23    -20.5192  15.4522  57.4237   N.2       1 RES1   0.0000
    24 N24    -20.3823  14.1552  57.8274   N.pl3     1 RES1   0.0000
    25 C25    -21.1000  13.6763  58.9950   C.3       1 RES1   0.0000
    26 C26    -18.5535  13.8200  54.8331   C.2       1 RES1   0.0000
    27 C27    -16.1121   9.7944  51.9254   C.2       1 RES1   0.0000
    28 C28    -15.3308   8.9655  51.1244   C.2       1 RES1   0.0000
    29 N29    -15.5547   8.4598  49.8446   N.2       1 RES1   0.0000
@<TRIPOS>BOND
     1     2     1    1
     2     2     3    1
     3     3     4    1
     4     4     5    1
     5     5     6    1
     6     6     7    1
     7     7     8    1
     8     8     9    2
     9     9    10    1
    10    10    11    2
    11    11    12    1
    12    12    13    2
    13    13    14    1
    14    14    15   am
    15    15    16    2
    16    15    17    1
    17    17    18    2
    18    18    19    1
    19    19    20    2
    20    20    21    1
    21    21    22    1
    22    22    23    2
    23    23    24    1
    24    24    25    1
    25    21    26    2
    26    13    27    1
    27    27    28    2
    28    28    29    1
    29     6     2    1
    30    29     8    1
    31    28    10    1
    32    26    17    1
    33    24    20    1
@<TRIPOS>SUBSTRUCTURE
     1 RES1        1 GROUP             0 ****  ****    0  
@<TRIPOS>MOLECULE
ligand_52
    29    33     1     0     0
SMALL
USER_CHARGES
****
Generated from the CSD

@<TRIPOS>ATOM
     1 C1     -12.2333   9.5175  48.5539   C.3       1 RES1   0.0000
     2 C2     -12.4534   8.5862  47.3812   C.3       1 RES1   0.0000
     3 C3     -11.2355   8.3465  46.4949   C.3       1 RES1   0.0000
     4 C4     -11.2481   6.9120  46.0833   C.3       1 RES1   0.0000
     5 C5     -12.5201   6.3350  46.6552   C.3       1 RES1   0.0000
     6 N6     -12.8346   7.1979  47.8209   N.3       1 RES1   1.0000
     7 C7     -14.2284   7.0517  48.2674   C.3       1 RES1   0.0000
     8 C8     -14.4833   7.7389  49.5704   C.2       1 RES1   0.0000
     9 N9     -13.5858   7.7242  50.5814   N.2       1 RES1   0.0000
    10 C10    -14.1101   8.4978  51.6023   C.2       1 RES1   0.0000
    11 C11    -13.6511   8.8127  52.8803   C.2       1 RES1   0.0000
    12 C12    -14.4365   9.6372  53.6776   C.2       1 RES1   0.0000
    13 C13    -15.6595  10.1342  53.2039   C.2       1 RES1   0.0000
    14 N14    -16.4439  10.9360  54.0661   N.am      1 RES1   0.0000
    15 C15    -17.7976  11.0263  54.1188   C.2       1 RES1   0.0000
    16 O16    -18.5499  10.3939  53.3802   O.2       1 RES1   0.0000
    17 C17    -18.3476  11.8702  55.2201   C.2       1 RES1   0.0000
    18 C18    -19.6136  12.4434  55.0637   C.2       1 RES1   0.0000
    19 C19    -20.1754  13.2271  56.0625   C.2       1 RES1   0.0000
    20 C20    -19.4607  13.4097  57.2327   C.2       1 RES1   0.0000
    21 C21    -18.2120  12.8054  57.4361   C.2       1 RES1   0.0000
    22 C22    -17.8401  13.2027  58.7505   C.2       1 RES1   0.0000
    23 N23    -18.7473  13.9910  59.2868   N.2       1 RES1   0.0000
    24 N24    -19.7277  14.1332  58.3473   N.pl3     1 RES1   0.0000
    25 C25    -20.8262  15.0547  58.5749   C.3       1 RES1   0.0000
    26 C26    -17.6388  12.0574  56.4106   C.2       1 RES1   0.0000
    27 C27    -16.1121   9.7944  51.9254   C.2       1 RES1   0.0000
    28 C28    -15.3308   8.9655  51.1244   C.2       1 RES1   0.0000
    29 N29    -15.5547   8.4598  49.8446   N.2       1 RES1   0.0000
@<TRIPOS>BOND
     1     2     1    1
     2     2     3    1
     3     3     4    1
     4     4     5    1
     5     5     6    1
     6     6     7    1
     7     7     8    1
     8     8     9    2
     9     9    10    1
    10    10    11    2
    11    11    12    1
    12    12    13    2
    13    13    14    1
    14    14    15   am
    15    15    16    2
    16    15    17    1
    17    17    18    2
    18    18    19    1
    19    19    20    2
    20    20    21    1
    21    21    22    1
    22    22    23    2
    23    23    24    1
    24    24    25    1
    25    21    26    2
    26    13    27    1
    27    27    28    2
    28    28    29    1
    29     6     2    1
    30    29     8    1
    31    28    10    1
    32    26    17    1
    33    24    20    1
@<TRIPOS>SUBSTRUCTURE
     1 RES1        1 GROUP             0 ****  ****    0  
@<TRIPOS>MOLECULE
ligand_53
    29    33     1     0     0
SMALL
USER_CHARGES
****
Generated from the CSD

@<TRIPOS>ATOM
     1 C1     -12.2328   9.5170  48.5547   C.3       1 RES1   0.0000
     2 C2     -12.4530   8.5861  47.3817   C.3       1 RES1   0.0000
     3 C3     -11.2352   8.3464  46.4954   C.3       1 RES1   0.0000
     4 C4     -11.2480   6.9121  46.0834   C.3       1 RES1   0.0000
     5 C5     -12.5202   6.3351  46.6551   C.3       1 RES1   0.0000
     6 N6     -12.8345   7.1977  47.8210   N.3       1 RES1   1.0000
     7 C7     -14.2284   7.0517  48.2674   C.3       1 RES1   0.0000
     8 C8     -14.4833   7.7389  49.5704   C.2       1 RES1   0.0000
     9 N9     -13.5858   7.7242  50.5814   N.2       1 RES1   0.0000
    10 C10    -14.1101   8.4978  51.6023   C.2       1 RES1   0.0000
    11 C11    -13.6511   8.8127  52.8803   C.2       1 RES1   0.0000
    12 C12    -14.4365   9.6372  53.6776   C.2       1 RES1   0.0000
    13 C13    -15.6595  10.1342  53.2039   C.2       1 RES1   0.0000
    14 N14    -16.4439  10.9360  54.0661   N.am      1 RES1   0.0000
    15 C15    -17.7975  11.0302  54.1153   C.2       1 RES1   0.0000
    16 O16    -18.5504  10.3778  53.3950   O.2       1 RES1   0.0000
    17 C17    -18.3466  11.9068  55.1912   C.2       1 RES1   0.0000
    18 C18    -19.5700  11.5692  55.7786   C.2       1 RES1   0.0000
    19 C19    -20.1187  12.3447  56.7909   C.2       1 RES1   0.0000
    20 C20    -19.4124  13.4521  57.2248   C.2       1 RES1   0.0000
    21 C21    -18.1603  13.7847  56.6887   C.2       1 RES1   0.0000
    22 C22    -17.7625  14.9400  57.4174   C.2       1 RES1   0.0000
    23 N23    -18.6833  15.2978  58.2868   N.2       1 RES1   0.0000
    24 N24    -19.7012  14.3980  58.1516   N.pl3     1 RES1   0.0000
    25 C25    -20.9409  14.5855  58.8835   C.3       1 RES1   0.0000
    26 C26    -17.6399  13.0252  55.6438   C.2       1 RES1   0.0000
    27 C27    -16.1121   9.7944  51.9254   C.2       1 RES1   0.0000
    28 C28    -15.3308   8.9655  51.1244   C.2       1 RES1   0.0000
    29 N29    -15.5547   8.4598  49.8446   N.2       1 RES1   0.0000
@<TRIPOS>BOND
     1     2     1    1
     2     2     3    1
     3     3     4    1
     4     4     5    1
     5     5     6    1
     6     6     7    1
     7     7     8    1
     8     8     9    2
     9     9    10    1
    10    10    11    2
    11    11    12    1
    12    12    13    2
    13    13    14    1
    14    14    15   am
    15    15    16    2
    16    15    17    1
    17    17    18    2
    18    18    19    1
    19    19    20    2
    20    20    21    1
    21    21    22    1
    22    22    23    2
    23    23    24    1
    24    24    25    1
    25    21    26    2
    26    13    27    1
    27    27    28    2
    28    28    29    1
    29     6     2    1
    30    29     8    1
    31    28    10    1
    32    26    17    1
    33    24    20    1
@<TRIPOS>SUBSTRUCTURE
     1 RES1        1 GROUP             0 ****  ****    0  
@<TRIPOS>MOLECULE
ligand_54
    29    33     1     0     0
SMALL
USER_CHARGES
****
Generated from the CSD

@<TRIPOS>ATOM
     1 C1     -12.2322   9.5165  48.5545   C.3       1 RES1   0.0000
     2 C2     -12.4524   8.5854  47.3818   C.3       1 RES1   0.0000
     3 C3     -11.2344   8.3451  46.4957   C.3       1 RES1   0.0000
     4 C4     -11.2475   6.9107  46.0841   C.3       1 RES1   0.0000
     5 C5     -12.5200   6.3342  46.6557   C.3       1 RES1   0.0000
     6 N6     -12.8344   7.1972  47.8213   N.3       1 RES1   1.0000
     7 C7     -14.2284   7.0517  48.2674   C.3       1 RES1   0.0000
     8 C8     -14.4833   7.7389  49.5704   C.2       1 RES1   0.0000
     9 N9     -13.5858   7.7242  50.5814   N.2       1 RES1   0.0000
    10 C10    -14.1101   8.4978  51.6023   C.2       1 RES1   0.0000
    11 C11    -13.6511   8.8127  52.8803   C.2       1 RES1   0.0000
    12 C12    -14.4365   9.6372  53.6776   C.2       1 RES1   0.0000
    13 C13    -15.6595  10.1342  53.2039   C.2       1 RES1   0.0000
    14 N14    -16.4439  10.9360  54.0661   N.am      1 RES1   0.0000
    15 C15    -17.7975  11.0317  54.1140   C.2       1 RES1   0.0000
    16 O16    -18.5506  10.3737  53.3991   O.2       1 RES1   0.0000
    17 C17    -18.3462  11.9182  55.1819   C.2       1 RES1   0.0000
    18 C18    -17.6330  13.0672  55.5382   C.2       1 RES1   0.0000
    19 C19    -18.1055  13.9308  56.5171   C.2       1 RES1   0.0000
    20 C20    -19.3168  13.6403  57.1188   C.2       1 RES1   0.0000
    21 C21    -20.0766  12.5230  56.7450   C.2       1 RES1   0.0000
    22 C22    -21.2431  12.6051  57.5554   C.2       1 RES1   0.0000
    23 N23    -21.1929  13.6437  58.3622   N.2       1 RES1   0.0000
    24 N24    -20.0031  14.2631  58.1079   N.pl3     1 RES1   0.0000
    25 C25    -19.5749  15.3821  58.9277   C.3       1 RES1   0.0000
    26 C26    -19.5724  11.6400  55.7933   C.2       1 RES1   0.0000
    27 C27    -16.1121   9.7944  51.9254   C.2       1 RES1   0.0000
    28 C28    -15.3308   8.9655  51.1244   C.2       1 RES1   0.0000
    29 N29    -15.5547   8.4598  49.8446   N.2       1 RES1   0.0000
@<TRIPOS>BOND
     1     2     1    1
     2     2     3    1
     3     3     4    1
     4     4     5    1
     5     5     6    1
     6     6     7    1
     7     7     8    1
     8     8     9    2
     9     9    10    1
    10    10    11    2
    11    11    12    1
    12    12    13    2
    13    13    14    1
    14    14    15   am
    15    15    16    2
    16    15    17    1
    17    17    18    2
    18    18    19    1
    19    19    20    2
    20    20    21    1
    21    21    22    1
    22    22    23    2
    23    23    24    1
    24    24    25    1
    25    21    26    2
    26    13    27    1
    27    27    28    2
    28    28    29    1
    29     6     2    1
    30    29     8    1
    31    28    10    1
    32    26    17    1
    33    24    20    1
@<TRIPOS>SUBSTRUCTURE
     1 RES1        1 GROUP             0 ****  ****    0  
@<TRIPOS>MOLECULE
ligand_55
    29    33     1     0     0
SMALL
USER_CHARGES
****
Generated from the CSD

@<TRIPOS>ATOM
     1 C1     -12.2317   9.5161  48.5546   C.3       1 RES1   0.0000
     2 C2     -12.4519   8.5849  47.3819   C.3       1 RES1   0.0000
     3 C3     -11.2338   8.3443  46.4961   C.3       1 RES1   0.0000
     4 C4     -11.2472   6.9098  46.0846   C.3       1 RES1   0.0000
     5 C5     -12.5199   6.3337  46.6560   C.3       1 RES1   0.0000
     6 N6     -12.8343   7.1969  47.8215   N.3       1 RES1   1.0000
     7 C7     -14.2284   7.0517  48.2674   C.3       1 RES1   0.0000
     8 C8     -14.4833   7.7389  49.5704   C.2       1 RES1   0.0000
     9 N9     -13.5858   7.7242  50.5814   N.2       1 RES1   0.0000
    10 C10    -14.1101   8.4978  51.6023   C.2       1 RES1   0.0000
    11 C11    -13.6511   8.8127  52.8803   C.2       1 RES1   0.0000
    12 C12    -14.4365   9.6372  53.6776   C.2       1 RES1   0.0000
    13 C13    -15.6595  10.1342  53.2039   C.2       1 RES1   0.0000
    14 N14    -16.4439  10.9360  54.0661   N.am      1 RES1   0.0000
    15 C15    -17.7977  11.0242  54.1207   C.2       1 RES1   0.0000
    16 O16    -18.5495  10.4067  53.3692   O.2       1 RES1   0.0000
    17 C17    -18.3482  11.8449  55.2391   C.2       1 RES1   0.0000
    18 C18    -17.6019  11.9709  56.4151   C.2       1 RES1   0.0000
    19 C19    -18.0635  12.7319  57.4804   C.2       1 RES1   0.0000
    20 C20    -19.2745  13.3862  57.3428   C.2       1 RES1   0.0000
    21 C21    -20.0189  13.3182  56.1567   C.2       1 RES1   0.0000
    22 C22    -21.1516  14.1422  56.4057   C.2       1 RES1   0.0000
    23 N23    -21.1230  14.6392  57.6240   N.2       1 RES1   0.0000
    24 N24    -19.9841  14.1575  58.2024   N.pl3     1 RES1   0.0000
    25 C25    -19.7151  14.4146  59.6057   C.3       1 RES1   0.0000
    26 C26    -19.5676  12.5169  55.1108   C.2       1 RES1   0.0000
    27 C27    -16.1121   9.7944  51.9254   C.2       1 RES1   0.0000
    28 C28    -15.3308   8.9655  51.1244   C.2       1 RES1   0.0000
    29 N29    -15.5547   8.4598  49.8446   N.2       1 RES1   0.0000
@<TRIPOS>BOND
     1     2     1    1
     2     2     3    1
     3     3     4    1
     4     4     5    1
     5     5     6    1
     6     6     7    1
     7     7     8    1
     8     8     9    2
     9     9    10    1
    10    10    11    2
    11    11    12    1
    12    12    13    2
    13    13    14    1
    14    14    15   am
    15    15    16    2
    16    15    17    1
    17    17    18    2
    18    18    19    1
    19    19    20    2
    20    20    21    1
    21    21    22    1
    22    22    23    2
    23    23    24    1
    24    24    25    1
    25    21    26    2
    26    13    27    1
    27    27    28    2
    28    28    29    1
    29     6     2    1
    30    29     8    1
    31    28    10    1
    32    26    17    1
    33    24    20    1
@<TRIPOS>SUBSTRUCTURE
     1 RES1        1 GROUP             0 ****  ****    0  
@<TRIPOS>MOLECULE
ligand_56
    29    33     1     0     0
SMALL
USER_CHARGES
****
Generated from the CSD

@<TRIPOS>ATOM
     1 C1     -12.2344   9.5186  48.5526   C.3       1 RES1   0.0000
     2 C2     -12.4543   8.5867  47.3803   C.3       1 RES1   0.0000
     3 C3     -11.2364   8.3473  46.4939   C.3       1 RES1   0.0000
     4 C4     -11.2484   6.9126  46.0829   C.3       1 RES1   0.0000
     5 C5     -12.5200   6.3352  46.6552   C.3       1 RES1   0.0000
     6 N6     -12.8347   7.1984  47.8206   N.3       1 RES1   1.0000
     7 C7     -14.2284   7.0517  48.2674   C.3       1 RES1   0.0000
     8 C8     -14.4833   7.7389  49.5704   C.2       1 RES1   0.0000
     9 N9     -13.5858   7.7242  50.5814   N.2       1 RES1   0.0000
    10 C10    -14.1101   8.4978  51.6023   C.2       1 RES1   0.0000
    11 C11    -13.6511   8.8127  52.8803   C.2       1 RES1   0.0000
    12 C12    -14.4365   9.6372  53.6776   C.2       1 RES1   0.0000
    13 C13    -15.6595  10.1342  53.2039   C.2       1 RES1   0.0000
    14 N14    -16.4439  10.9360  54.0661   N.am      1 RES1   0.0000
    15 C15    -16.5518  10.8493  55.4169   C.2       1 RES1   0.0000
    16 O16    -15.9847   9.9910  56.0899   O.2       1 RES1   0.0000
    17 C17    -17.3252  11.9426  56.0758   C.2       1 RES1   0.0000
    18 C18    -17.9184  11.6959  57.3180   C.2       1 RES1   0.0000
    19 C19    -18.6386  12.6822  57.9782   C.2       1 RES1   0.0000
    20 C20    -18.7366  13.9292  57.3874   C.2       1 RES1   0.0000
    21 C21    -18.1093  14.2186  56.1674   C.2       1 RES1   0.0000
    22 C22    -18.4149  15.5880  55.9321   C.2       1 RES1   0.0000
    23 N23    -19.1735  16.0800  56.8883   N.2       1 RES1   0.0000
    24 N24    -19.3865  15.0567  57.7665   N.pl3     1 RES1   0.0000
    25 C25    -20.3003  15.2317  58.8810   C.3       1 RES1   0.0000
    26 C26    -17.4264  13.2094  55.4930   C.2       1 RES1   0.0000
    27 C27    -16.1121   9.7944  51.9254   C.2       1 RES1   0.0000
    28 C28    -15.3308   8.9655  51.1244   C.2       1 RES1   0.0000
    29 N29    -15.5547   8.4598  49.8446   N.2       1 RES1   0.0000
@<TRIPOS>BOND
     1     2     1    1
     2     2     3    1
     3     3     4    1
     4     4     5    1
     5     5     6    1
     6     6     7    1
     7     7     8    1
     8     8     9    2
     9     9    10    1
    10    10    11    2
    11    11    12    1
    12    12    13    2
    13    13    14    1
    14    14    15   am
    15    15    16    2
    16    15    17    1
    17    17    18    2
    18    18    19    1
    19    19    20    2
    20    20    21    1
    21    21    22    1
    22    22    23    2
    23    23    24    1
    24    24    25    1
    25    21    26    2
    26    13    27    1
    27    27    28    2
    28    28    29    1
    29     6     2    1
    30    29     8    1
    31    28    10    1
    32    26    17    1
    33    24    20    1
@<TRIPOS>SUBSTRUCTURE
     1 RES1        1 GROUP             0 ****  ****    0  
@<TRIPOS>MOLECULE
ligand_57
    29    33     1     0     0
SMALL
USER_CHARGES
****
Generated from the CSD

@<TRIPOS>ATOM
     1 C1     -12.2333   9.5175  48.5540   C.3       1 RES1   0.0000
     2 C2     -12.4534   8.5863  47.3813   C.3       1 RES1   0.0000
     3 C3     -11.2356   8.3467  46.4949   C.3       1 RES1   0.0000
     4 C4     -11.2481   6.9122  46.0832   C.3       1 RES1   0.0000
     5 C5     -12.5201   6.3351  46.6551   C.3       1 RES1   0.0000
     6 N6     -12.8346   7.1979  47.8209   N.3       1 RES1   1.0000
     7 C7     -14.2284   7.0517  48.2674   C.3       1 RES1   0.0000
     8 C8     -14.4833   7.7389  49.5704   C.2       1 RES1   0.0000
     9 N9     -13.5858   7.7242  50.5814   N.2       1 RES1   0.0000
    10 C10    -14.1101   8.4978  51.6023   C.2       1 RES1   0.0000
    11 C11    -13.6511   8.8127  52.8803   C.2       1 RES1   0.0000
    12 C12    -14.4365   9.6372  53.6776   C.2       1 RES1   0.0000
    13 C13    -15.6595  10.1342  53.2039   C.2       1 RES1   0.0000
    14 N14    -16.4439  10.9360  54.0661   N.am      1 RES1   0.0000
    15 C15    -16.5566  10.8453  55.4162   C.2       1 RES1   0.0000
    16 O16    -15.9732   9.9996  56.0913   O.2       1 RES1   0.0000
    17 C17    -17.3583  11.9197  56.0723   C.2       1 RES1   0.0000
    18 C18    -16.9969  12.3442  57.3549   C.2       1 RES1   0.0000
    19 C19    -17.7025  13.3479  58.0044   C.2       1 RES1   0.0000
    20 C20    -18.7628  13.9388  57.3411   C.2       1 RES1   0.0000
    21 C21    -19.1150  13.5678  56.0357   C.2       1 RES1   0.0000
    22 C22    -20.2057  14.4215  55.7107   C.2       1 RES1   0.0000
    23 N23    -20.5115  15.2115  56.7178   N.2       1 RES1   0.0000
    24 N24    -19.6407  14.8989  57.7217   N.pl3     1 RES1   0.0000
    25 C25    -19.7921  15.5050  59.0322   C.3       1 RES1   0.0000
    26 C26    -18.4281  12.5301  55.4106   C.2       1 RES1   0.0000
    27 C27    -16.1121   9.7944  51.9254   C.2       1 RES1   0.0000
    28 C28    -15.3308   8.9655  51.1244   C.2       1 RES1   0.0000
    29 N29    -15.5547   8.4598  49.8446   N.2       1 RES1   0.0000
@<TRIPOS>BOND
     1     2     1    1
     2     2     3    1
     3     3     4    1
     4     4     5    1
     5     5     6    1
     6     6     7    1
     7     7     8    1
     8     8     9    2
     9     9    10    1
    10    10    11    2
    11    11    12    1
    12    12    13    2
    13    13    14    1
    14    14    15   am
    15    15    16    2
    16    15    17    1
    17    17    18    2
    18    18    19    1
    19    19    20    2
    20    20    21    1
    21    21    22    1
    22    22    23    2
    23    23    24    1
    24    24    25    1
    25    21    26    2
    26    13    27    1
    27    27    28    2
    28    28    29    1
    29     6     2    1
    30    29     8    1
    31    28    10    1
    32    26    17    1
    33    24    20    1
@<TRIPOS>SUBSTRUCTURE
     1 RES1        1 GROUP             0 ****  ****    0  
@<TRIPOS>MOLECULE
ligand_58
    29    33     1     0     0
SMALL
USER_CHARGES
****
Generated from the CSD

@<TRIPOS>ATOM
     1 C1     -12.2345   9.5187  48.5524   C.3       1 RES1   0.0000
     2 C2     -12.4543   8.5867  47.3802   C.3       1 RES1   0.0000
     3 C3     -11.2365   8.3472  46.4938   C.3       1 RES1   0.0000
     4 C4     -11.2483   6.9125  46.0829   C.3       1 RES1   0.0000
     5 C5     -12.5200   6.3351  46.6553   C.3       1 RES1   0.0000
     6 N6     -12.8347   7.1984  47.8206   N.3       1 RES1   1.0000
     7 C7     -14.2284   7.0517  48.2674   C.3       1 RES1   0.0000
     8 C8     -14.4833   7.7389  49.5704   C.2       1 RES1   0.0000
     9 N9     -13.5858   7.7242  50.5814   N.2       1 RES1   0.0000
    10 C10    -14.1101   8.4978  51.6023   C.2       1 RES1   0.0000
    11 C11    -13.6511   8.8127  52.8803   C.2       1 RES1   0.0000
    12 C12    -14.4365   9.6372  53.6776   C.2       1 RES1   0.0000
    13 C13    -15.6595  10.1342  53.2039   C.2       1 RES1   0.0000
    14 N14    -16.4439  10.9360  54.0661   N.am      1 RES1   0.0000
    15 C15    -16.5581  10.8440  55.4160   C.2       1 RES1   0.0000
    16 O16    -15.9668  10.0047  56.0921   O.2       1 RES1   0.0000
    17 C17    -17.3729  11.9095  56.0706   C.2       1 RES1   0.0000
    18 C18    -18.4859  12.4195  55.3947   C.2       1 RES1   0.0000
    19 C19    -19.2833  13.4029  55.9641   C.2       1 RES1   0.0000
    20 C20    -18.9642  13.8527  57.2328   C.2       1 RES1   0.0000
    21 C21    -17.8844  13.3229  57.9532   C.2       1 RES1   0.0000
    22 C22    -17.9218  14.0110  59.1978   C.2       1 RES1   0.0000
    23 N23    -18.9001  14.8908  59.2289   N.2       1 RES1   0.0000
    24 N24    -19.5229  14.8068  58.0169   N.pl3     1 RES1   0.0000
    25 C25    -20.5764  15.7446  57.6730   C.3       1 RES1   0.0000
    26 C26    -17.0655  12.3683  57.3551   C.2       1 RES1   0.0000
    27 C27    -16.1121   9.7944  51.9254   C.2       1 RES1   0.0000
    28 C28    -15.3308   8.9655  51.1244   C.2       1 RES1   0.0000
    29 N29    -15.5547   8.4598  49.8446   N.2       1 RES1   0.0000
@<TRIPOS>BOND
     1     2     1    1
     2     2     3    1
     3     3     4    1
     4     4     5    1
     5     5     6    1
     6     6     7    1
     7     7     8    1
     8     8     9    2
     9     9    10    1
    10    10    11    2
    11    11    12    1
    12    12    13    2
    13    13    14    1
    14    14    15   am
    15    15    16    2
    16    15    17    1
    17    17    18    2
    18    18    19    1
    19    19    20    2
    20    20    21    1
    21    21    22    1
    22    22    23    2
    23    23    24    1
    24    24    25    1
    25    21    26    2
    26    13    27    1
    27    27    28    2
    28    28    29    1
    29     6     2    1
    30    29     8    1
    31    28    10    1
    32    26    17    1
    33    24    20    1
@<TRIPOS>SUBSTRUCTURE
     1 RES1        1 GROUP             0 ****  ****    0  
@<TRIPOS>MOLECULE
ligand_59
    29    33     1     0     0
SMALL
USER_CHARGES
****
Generated from the CSD

@<TRIPOS>ATOM
     1 C1     -12.2337   9.5178  48.5543   C.3       1 RES1   0.0000
     2 C2     -12.4538   8.5868  47.3813   C.3       1 RES1   0.0000
     3 C3     -11.2361   8.3476  46.4947   C.3       1 RES1   0.0000
     4 C4     -11.2485   6.9133  46.0827   C.3       1 RES1   0.0000
     5 C5     -12.5203   6.3358  46.6547   C.3       1 RES1   0.0000
     6 N6     -12.8347   7.1983  47.8207   N.3       1 RES1   1.0000
     7 C7     -14.2284   7.0517  48.2674   C.3       1 RES1   0.0000
     8 C8     -14.4833   7.7389  49.5704   C.2       1 RES1   0.0000
     9 N9     -13.5858   7.7242  50.5814   N.2       1 RES1   0.0000
    10 C10    -14.1101   8.4978  51.6023   C.2       1 RES1   0.0000
    11 C11    -13.6511   8.8127  52.8803   C.2       1 RES1   0.0000
    12 C12    -14.4365   9.6372  53.6776   C.2       1 RES1   0.0000
    13 C13    -15.6595  10.1342  53.2039   C.2       1 RES1   0.0000
    14 N14    -16.4439  10.9360  54.0661   N.am      1 RES1   0.0000
    15 C15    -16.5477  10.8527  55.4174   C.2       1 RES1   0.0000
    16 O16    -15.9945   9.9843  56.0889   O.2       1 RES1   0.0000
    17 C17    -17.2970  11.9613  56.0784   C.2       1 RES1   0.0000
    18 C18    -17.3404  13.2126  55.4553   C.2       1 RES1   0.0000
    19 C19    -18.0331  14.2736  56.0226   C.2       1 RES1   0.0000
    20 C20    -18.7034  14.0575  57.2132   C.2       1 RES1   0.0000
    21 C21    -18.7185  12.8001  57.8332   C.2       1 RES1   0.0000
    22 C22    -19.5323  12.9870  58.9852   C.2       1 RES1   0.0000
    23 N23    -19.9481  14.2320  59.0804   N.2       1 RES1   0.0000
    24 N24    -19.4216  14.8898  58.0061   N.pl3     1 RES1   0.0000
    25 C25    -19.5841  16.3270  57.8810   C.3       1 RES1   0.0000
    26 C26    -17.9845  11.7548  57.2783   C.2       1 RES1   0.0000
    27 C27    -16.1121   9.7944  51.9254   C.2       1 RES1   0.0000
    28 C28    -15.3308   8.9655  51.1244   C.2       1 RES1   0.0000
    29 N29    -15.5547   8.4598  49.8446   N.2       1 RES1   0.0000
@<TRIPOS>BOND
     1     2     1    1
     2     2     3    1
     3     3     4    1
     4     4     5    1
     5     5     6    1
     6     6     7    1
     7     7     8    1
     8     8     9    2
     9     9    10    1
    10    10    11    2
    11    11    12    1
    12    12    13    2
    13    13    14    1
    14    14    15   am
    15    15    16    2
    16    15    17    1
    17    17    18    2
    18    18    19    1
    19    19    20    2
    20    20    21    1
    21    21    22    1
    22    22    23    2
    23    23    24    1
    24    24    25    1
    25    21    26    2
    26    13    27    1
    27    27    28    2
    28    28    29    1
    29     6     2    1
    30    29     8    1
    31    28    10    1
    32    26    17    1
    33    24    20    1
@<TRIPOS>SUBSTRUCTURE
     1 RES1        1 GROUP             0 ****  ****    0  
@<TRIPOS>MOLECULE
ligand_60
    29    33     1     0     0
SMALL
USER_CHARGES
****
Generated from the CSD

@<TRIPOS>ATOM
     1 C1     -12.2334   9.5176  48.5536   C.3       1 RES1   0.0000
     2 C2     -12.4534   8.5861  47.3810   C.3       1 RES1   0.0000
     3 C3     -11.2355   8.3463  46.4947   C.3       1 RES1   0.0000
     4 C4     -11.2480   6.9118  46.0834   C.3       1 RES1   0.0000
     5 C5     -12.5200   6.3348  46.6554   C.3       1 RES1   0.0000
     6 N6     -12.8346   7.1979  47.8209   N.3       1 RES1   1.0000
     7 C7     -14.2284   7.0517  48.2674   C.3       1 RES1   0.0000
     8 C8     -14.4833   7.7389  49.5704   C.2       1 RES1   0.0000
     9 N9     -13.5858   7.7242  50.5814   N.2       1 RES1   0.0000
    10 C10    -14.1101   8.4978  51.6023   C.2       1 RES1   0.0000
    11 C11    -13.6511   8.8127  52.8803   C.2       1 RES1   0.0000
    12 C12    -14.4365   9.6372  53.6776   C.2       1 RES1   0.0000
    13 C13    -15.6595  10.1342  53.2039   C.2       1 RES1   0.0000
    14 N14    -16.4439  10.9360  54.0661   N.am      1 RES1   0.0000
    15 C15    -16.0145  11.8108  55.0116   C.2       1 RES1   0.0000
    16 O16    -14.8276  12.0295  55.2457   O.2       1 RES1   0.0000
    17 C17    -17.0812  12.5978  55.6974   C.2       1 RES1   0.0000
    18 C18    -16.8332  13.0966  56.9802   C.2       1 RES1   0.0000
    19 C19    -17.7876  13.8441  57.6567   C.2       1 RES1   0.0000
    20 C20    -18.9874  14.1064  57.0201   C.2       1 RES1   0.0000
    21 C21    -19.2425  13.6618  55.7152   C.2       1 RES1   0.0000
    22 C22    -20.5411  14.1631  55.4214   C.2       1 RES1   0.0000
    23 N23    -21.0435  14.8194  56.4456   N.2       1 RES1   0.0000
    24 N24    -20.0992  14.7646  57.4300   N.pl3     1 RES1   0.0000
    25 C25    -20.3941  15.2872  58.7519   C.3       1 RES1   0.0000
    26 C26    -18.2957  12.8759  55.0629   C.2       1 RES1   0.0000
    27 C27    -16.1121   9.7944  51.9254   C.2       1 RES1   0.0000
    28 C28    -15.3308   8.9655  51.1244   C.2       1 RES1   0.0000
    29 N29    -15.5547   8.4598  49.8446   N.2       1 RES1   0.0000
@<TRIPOS>BOND
     1     2     1    1
     2     2     3    1
     3     3     4    1
     4     4     5    1
     5     5     6    1
     6     6     7    1
     7     7     8    1
     8     8     9    2
     9     9    10    1
    10    10    11    2
    11    11    12    1
    12    12    13    2
    13    13    14    1
    14    14    15   am
    15    15    16    2
    16    15    17    1
    17    17    18    2
    18    18    19    1
    19    19    20    2
    20    20    21    1
    21    21    22    1
    22    22    23    2
    23    23    24    1
    24    24    25    1
    25    21    26    2
    26    13    27    1
    27    27    28    2
    28    28    29    1
    29     6     2    1
    30    29     8    1
    31    28    10    1
    32    26    17    1
    33    24    20    1
@<TRIPOS>SUBSTRUCTURE
     1 RES1        1 GROUP             0 ****  ****    0  
@<TRIPOS>MOLECULE
ligand_61
    29    33     1     0     0
SMALL
USER_CHARGES
****
Generated from the CSD

@<TRIPOS>ATOM
     1 C1     -12.2334   9.5176  48.5537   C.3       1 RES1   0.0000
     2 C2     -12.4534   8.5862  47.3811   C.3       1 RES1   0.0000
     3 C3     -11.2356   8.3465  46.4947   C.3       1 RES1   0.0000
     4 C4     -11.2481   6.9119  46.0833   C.3       1 RES1   0.0000
     5 C5     -12.5201   6.3349  46.6553   C.3       1 RES1   0.0000
     6 N6     -12.8346   7.1979  47.8209   N.3       1 RES1   1.0000
     7 C7     -14.2284   7.0517  48.2674   C.3       1 RES1   0.0000
     8 C8     -14.4833   7.7389  49.5704   C.2       1 RES1   0.0000
     9 N9     -13.5858   7.7242  50.5814   N.2       1 RES1   0.0000
    10 C10    -14.1101   8.4978  51.6023   C.2       1 RES1   0.0000
    11 C11    -13.6511   8.8127  52.8803   C.2       1 RES1   0.0000
    12 C12    -14.4365   9.6372  53.6776   C.2       1 RES1   0.0000
    13 C13    -15.6595  10.1342  53.2039   C.2       1 RES1   0.0000
    14 N14    -16.4439  10.9360  54.0661   N.am      1 RES1   0.0000
    15 C15    -16.0145  11.8065  55.0156   C.2       1 RES1   0.0000
    16 O16    -14.8281  12.0459  55.2309   O.2       1 RES1   0.0000
    17 C17    -17.0838  12.5626  55.7315   C.2       1 RES1   0.0000
    18 C18    -16.8188  13.8687  56.1554   C.2       1 RES1   0.0000
    19 C19    -17.7828  14.6188  56.8152   C.2       1 RES1   0.0000
    20 C20    -19.0266  14.0506  57.0239   C.2       1 RES1   0.0000
    21 C21    -19.3353  12.7624  56.5648   C.2       1 RES1   0.0000
    22 C22    -20.6950  12.5734  56.9381   C.2       1 RES1   0.0000
    23 N23    -21.1637  13.6200  57.5839   N.2       1 RES1   0.0000
    24 N24    -20.1339  14.5136  57.6538   N.pl3     1 RES1   0.0000
    25 C25    -20.2809  15.7354  58.4241   C.3       1 RES1   0.0000
    26 C26    -18.3474  12.0027  55.9431   C.2       1 RES1   0.0000
    27 C27    -16.1121   9.7944  51.9254   C.2       1 RES1   0.0000
    28 C28    -15.3308   8.9655  51.1244   C.2       1 RES1   0.0000
    29 N29    -15.5547   8.4598  49.8446   N.2       1 RES1   0.0000
@<TRIPOS>BOND
     1     2     1    1
     2     2     3    1
     3     3     4    1
     4     4     5    1
     5     5     6    1
     6     6     7    1
     7     7     8    1
     8     8     9    2
     9     9    10    1
    10    10    11    2
    11    11    12    1
    12    12    13    2
    13    13    14    1
    14    14    15   am
    15    15    16    2
    16    15    17    1
    17    17    18    2
    18    18    19    1
    19    19    20    2
    20    20    21    1
    21    21    22    1
    22    22    23    2
    23    23    24    1
    24    24    25    1
    25    21    26    2
    26    13    27    1
    27    27    28    2
    28    28    29    1
    29     6     2    1
    30    29     8    1
    31    28    10    1
    32    26    17    1
    33    24    20    1
@<TRIPOS>SUBSTRUCTURE
     1 RES1        1 GROUP             0 ****  ****    0  
@<TRIPOS>MOLECULE
ligand_62
    29    33     1     0     0
SMALL
USER_CHARGES
****
Generated from the CSD

@<TRIPOS>ATOM
     1 C1     -12.2317   9.5161  48.5548   C.3       1 RES1   0.0000
     2 C2     -12.4519   8.5850  47.3820   C.3       1 RES1   0.0000
     3 C3     -11.2339   8.3445  46.4961   C.3       1 RES1   0.0000
     4 C4     -11.2473   6.9101  46.0845   C.3       1 RES1   0.0000
     5 C5     -12.5200   6.3339  46.6559   C.3       1 RES1   0.0000
     6 N6     -12.8343   7.1969  47.8215   N.3       1 RES1   1.0000
     7 C7     -14.2284   7.0517  48.2674   C.3       1 RES1   0.0000
     8 C8     -14.4833   7.7389  49.5704   C.2       1 RES1   0.0000
     9 N9     -13.5858   7.7242  50.5814   N.2       1 RES1   0.0000
    10 C10    -14.1101   8.4978  51.6023   C.2       1 RES1   0.0000
    11 C11    -13.6511   8.8127  52.8803   C.2       1 RES1   0.0000
    12 C12    -14.4365   9.6372  53.6776   C.2       1 RES1   0.0000
    13 C13    -15.6595  10.1342  53.2039   C.2       1 RES1   0.0000
    14 N14    -16.4439  10.9360  54.0661   N.am      1 RES1   0.0000
    15 C15    -16.0145  11.8051  55.0169   C.2       1 RES1   0.0000
    16 O16    -14.8283  12.0501  55.2273   O.2       1 RES1   0.0000
    17 C17    -17.0843  12.5526  55.7410   C.2       1 RES1   0.0000
    18 C18    -18.3031  11.9140  55.9912   C.2       1 RES1   0.0000
    19 C19    -19.3263  12.5609  56.6707   C.2       1 RES1   0.0000
    20 C20    -19.1034  13.8506  57.1185   C.2       1 RES1   0.0000
    21 C21    -17.8737  14.4959  56.9258   C.2       1 RES1   0.0000
    22 C22    -18.0391  15.7611  57.5552   C.2       1 RES1   0.0000
    23 N23    -19.2496  15.8923  58.0547   N.2       1 RES1   0.0000
    24 N24    -19.9055  14.7300  57.7671   N.pl3     1 RES1   0.0000
    25 C25    -21.3192  14.5975  58.0696   C.3       1 RES1   0.0000
    26 C26    -16.8698  13.8540  56.2049   C.2       1 RES1   0.0000
    27 C27    -16.1121   9.7944  51.9254   C.2       1 RES1   0.0000
    28 C28    -15.3308   8.9655  51.1244   C.2       1 RES1   0.0000
    29 N29    -15.5547   8.4598  49.8446   N.2       1 RES1   0.0000
@<TRIPOS>BOND
     1     2     1    1
     2     2     3    1
     3     3     4    1
     4     4     5    1
     5     5     6    1
     6     6     7    1
     7     7     8    1
     8     8     9    2
     9     9    10    1
    10    10    11    2
    11    11    12    1
    12    12    13    2
    13    13    14    1
    14    14    15   am
    15    15    16    2
    16    15    17    1
    17    17    18    2
    18    18    19    1
    19    19    20    2
    20    20    21    1
    21    21    22    1
    22    22    23    2
    23    23    24    1
    24    24    25    1
    25    21    26    2
    26    13    27    1
    27    27    28    2
    28    28    29    1
    29     6     2    1
    30    29     8    1
    31    28    10    1
    32    26    17    1
    33    24    20    1
@<TRIPOS>SUBSTRUCTURE
     1 RES1        1 GROUP             0 ****  ****    0  
@<TRIPOS>MOLECULE
ligand_63
    29    33     1     0     0
SMALL
USER_CHARGES
****
Generated from the CSD

@<TRIPOS>ATOM
     1 C1     -12.2328   9.5171  48.5546   C.3       1 RES1   0.0000
     2 C2     -12.4530   8.5861  47.3816   C.3       1 RES1   0.0000
     3 C3     -11.2352   8.3464  46.4953   C.3       1 RES1   0.0000
     4 C4     -11.2480   6.9120  46.0834   C.3       1 RES1   0.0000
     5 C5     -12.5202   6.3351  46.6551   C.3       1 RES1   0.0000
     6 N6     -12.8345   7.1977  47.8210   N.3       1 RES1   1.0000
     7 C7     -14.2284   7.0517  48.2674   C.3       1 RES1   0.0000
     8 C8     -14.4833   7.7389  49.5704   C.2       1 RES1   0.0000
     9 N9     -13.5858   7.7242  50.5814   N.2       1 RES1   0.0000
    10 C10    -14.1101   8.4978  51.6023   C.2       1 RES1   0.0000
    11 C11    -13.6511   8.8127  52.8803   C.2       1 RES1   0.0000
    12 C12    -14.4365   9.6372  53.6776   C.2       1 RES1   0.0000
    13 C13    -15.6595  10.1342  53.2039   C.2       1 RES1   0.0000
    14 N14    -16.4439  10.9360  54.0661   N.am      1 RES1   0.0000
    15 C15    -16.0145  11.8131  55.0094   C.2       1 RES1   0.0000
    16 O16    -14.8277  12.0184  55.2561   O.2       1 RES1   0.0000
    17 C17    -17.0790  12.6198  55.6755   C.2       1 RES1   0.0000
    18 C18    -18.2615  12.8848  54.9776   C.2       1 RES1   0.0000
    19 C19    -19.2871  13.6204  55.5559   C.2       1 RES1   0.0000
    20 C20    -19.1218  14.0676  56.8544   C.2       1 RES1   0.0000
    21 C21    -17.9681  13.7732  57.5946   C.2       1 RES1   0.0000
    22 C22    -18.2050  14.3681  58.8650   C.2       1 RES1   0.0000
    23 N23    -19.3657  14.9877  58.8940   N.2       1 RES1   0.0000
    24 N24    -19.9150  14.8204  57.6554   N.pl3     1 RES1   0.0000
    25 C25    -21.1517  15.4976  57.3096   C.3       1 RES1   0.0000
    26 C26    -16.9277  13.0721  56.9898   C.2       1 RES1   0.0000
    27 C27    -16.1121   9.7944  51.9254   C.2       1 RES1   0.0000
    28 C28    -15.3308   8.9655  51.1244   C.2       1 RES1   0.0000
    29 N29    -15.5547   8.4598  49.8446   N.2       1 RES1   0.0000
@<TRIPOS>BOND
     1     2     1    1
     2     2     3    1
     3     3     4    1
     4     4     5    1
     5     5     6    1
     6     6     7    1
     7     7     8    1
     8     8     9    2
     9     9    10    1
    10    10    11    2
    11    11    12    1
    12    12    13    2
    13    13    14    1
    14    14    15   am
    15    15    16    2
    16    15    17    1
    17    17    18    2
    18    18    19    1
    19    19    20    2
    20    20    21    1
    21    21    22    1
    22    22    23    2
    23    23    24    1
    24    24    25    1
    25    21    26    2
    26    13    27    1
    27    27    28    2
    28    28    29    1
    29     6     2    1
    30    29     8    1
    31    28    10    1
    32    26    17    1
    33    24    20    1
@<TRIPOS>SUBSTRUCTURE
     1 RES1        1 GROUP             0 ****  ****    0  
@<TRIPOS>MOLECULE
ligand_64
    29    33     1     0     0
SMALL
USER_CHARGES
****
Generated from the CSD

@<TRIPOS>ATOM
     1 C1     -12.2129   9.4973  48.5830   C.3       1 RES1   0.0000
     2 C2     -12.4384   8.5799  47.4005   C.3       1 RES1   0.0000
     3 C3     -11.2208   8.3388  46.5142   C.3       1 RES1   0.0000
     4 C4     -11.2448   6.9087  46.0881   C.3       1 RES1   0.0000
     5 C5     -12.5229   6.3368  46.6515   C.3       1 RES1   0.0000
     6 N6     -12.8324   7.1905  47.8253   N.3       1 RES1   1.0000
     7 C7     -14.2284   7.0517  48.2674   C.3       1 RES1   0.0000
     8 C8     -14.4833   7.7389  49.5704   C.2       1 RES1   0.0000
     9 N9     -15.6267   8.4169  49.8168   N.2       1 RES1   0.0000
    10 C10    -15.5575   8.8706  51.1226   C.2       1 RES1   0.0000
    11 C11    -16.4189   9.6409  51.9021   C.2       1 RES1   0.0000
    12 C12    -16.0453   9.9269  53.2102   C.2       1 RES1   0.0000
    13 C13    -14.8305   9.4520  53.7259   C.2       1 RES1   0.0000
    14 N14    -14.4736   9.8030  55.0491   N.am      1 RES1   0.0000
    15 C15    -13.3688   9.4259  55.7426   C.2       1 RES1   0.0000
    16 O16    -12.5164   8.6597  55.2981   O.2       1 RES1   0.0000
    17 C17    -13.1770  10.0903  57.0653   C.2       1 RES1   0.0000
    18 C18    -12.4179   9.4402  58.0436   C.2       1 RES1   0.0000
    19 C19    -12.1998  10.0200  59.2860   C.2       1 RES1   0.0000
    20 C20    -12.7332  11.2733  59.5275   C.2       1 RES1   0.0000
    21 C21    -13.4550  11.9690  58.5474   C.2       1 RES1   0.0000
    22 C22    -13.7869  13.2055  59.1678   C.2       1 RES1   0.0000
    23 N23    -13.3437  13.2537  60.4060   N.2       1 RES1   0.0000
    24 N24    -12.7180  12.0611  60.6304   N.pl3     1 RES1   0.0000
    25 C25    -12.2244  11.7359  61.9564   C.3       1 RES1   0.0000
    26 C26    -13.7048  11.3596  57.3203   C.2       1 RES1   0.0000
    27 C27    -13.9710   8.6946  52.9243   C.2       1 RES1   0.0000
    28 C28    -14.3391   8.4089  51.6120   C.2       1 RES1   0.0000
    29 N29    -13.6686   7.7105  50.6088   N.2       1 RES1   0.0000
@<TRIPOS>BOND
     1     2     1    1
     2     2     3    1
     3     3     4    1
     4     4     5    1
     5     5     6    1
     6     6     7    1
     7     7     8    1
     8     8     9    2
     9     9    10    1
    10    10    11    2
    11    11    12    1
    12    12    13    2
    13    13    14    1
    14    14    15   am
    15    15    16    2
    16    15    17    1
    17    17    18    2
    18    18    19    1
    19    19    20    2
    20    20    21    1
    21    21    22    1
    22    22    23    2
    23    23    24    1
    24    24    25    1
    25    21    26    2
    26    13    27    1
    27    27    28    2
    28    28    29    1
    29     6     2    1
    30    29     8    1
    31    28    10    1
    32    26    17    1
    33    24    20    1
@<TRIPOS>SUBSTRUCTURE
     1 RES1        1 GROUP             0 ****  ****    0  
@<TRIPOS>MOLECULE
ligand_65
    29    33     1     0     0
SMALL
USER_CHARGES
****
Generated from the CSD

@<TRIPOS>ATOM
     1 C1     -12.2118   9.4963  48.5843   C.3       1 RES1   0.0000
     2 C2     -12.4376   8.5794  47.4013   C.3       1 RES1   0.0000
     3 C3     -11.2200   8.3381  46.5152   C.3       1 RES1   0.0000
     4 C4     -11.2445   6.9081  46.0885   C.3       1 RES1   0.0000
     5 C5     -12.5230   6.3366  46.6515   C.3       1 RES1   0.0000
     6 N6     -12.8323   7.1900  47.8255   N.3       1 RES1   1.0000
     7 C7     -14.2284   7.0517  48.2674   C.3       1 RES1   0.0000
     8 C8     -14.4833   7.7389  49.5704   C.2       1 RES1   0.0000
     9 N9     -15.6267   8.4169  49.8168   N.2       1 RES1   0.0000
    10 C10    -15.5575   8.8706  51.1226   C.2       1 RES1   0.0000
    11 C11    -16.4189   9.6409  51.9021   C.2       1 RES1   0.0000
    12 C12    -16.0453   9.9269  53.2102   C.2       1 RES1   0.0000
    13 C13    -14.8305   9.4520  53.7259   C.2       1 RES1   0.0000
    14 N14    -14.4736   9.8030  55.0491   N.am      1 RES1   0.0000
    15 C15    -13.3629   9.4358  55.7384   C.2       1 RES1   0.0000
    16 O16    -12.4822   8.7151  55.2734   O.2       1 RES1   0.0000
    17 C17    -13.2038  10.0553  57.0869   C.2       1 RES1   0.0000
    18 C18    -11.9154  10.3325  57.5549   C.2       1 RES1   0.0000
    19 C19    -11.7134  10.9186  58.7970   C.2       1 RES1   0.0000
    20 C20    -12.8226  11.2461  59.5559   C.2       1 RES1   0.0000
    21 C21    -14.1263  11.0257  59.0896   C.2       1 RES1   0.0000
    22 C22    -14.9596  11.5257  60.1287   C.2       1 RES1   0.0000
    23 N23    -14.2465  11.9772  61.1384   N.2       1 RES1   0.0000
    24 N24    -12.9394  11.7850  60.7941   N.pl3     1 RES1   0.0000
    25 C25    -11.8855  12.0603  61.7539   C.3       1 RES1   0.0000
    26 C26    -14.3165  10.3975  57.8613   C.2       1 RES1   0.0000
    27 C27    -13.9710   8.6946  52.9243   C.2       1 RES1   0.0000
    28 C28    -14.3391   8.4089  51.6120   C.2       1 RES1   0.0000
    29 N29    -13.6686   7.7105  50.6088   N.2       1 RES1   0.0000
@<TRIPOS>BOND
     1     2     1    1
     2     2     3    1
     3     3     4    1
     4     4     5    1
     5     5     6    1
     6     6     7    1
     7     7     8    1
     8     8     9    2
     9     9    10    1
    10    10    11    2
    11    11    12    1
    12    12    13    2
    13    13    14    1
    14    14    15   am
    15    15    16    2
    16    15    17    1
    17    17    18    2
    18    18    19    1
    19    19    20    2
    20    20    21    1
    21    21    22    1
    22    22    23    2
    23    23    24    1
    24    24    25    1
    25    21    26    2
    26    13    27    1
    27    27    28    2
    28    28    29    1
    29     6     2    1
    30    29     8    1
    31    28    10    1
    32    26    17    1
    33    24    20    1
@<TRIPOS>SUBSTRUCTURE
     1 RES1        1 GROUP             0 ****  ****    0  
@<TRIPOS>MOLECULE
ligand_66
    29    33     1     0     0
SMALL
USER_CHARGES
****
Generated from the CSD

@<TRIPOS>ATOM
     1 C1     -12.2087   9.4932  48.5875   C.3       1 RES1   0.0000
     2 C2     -12.4351   8.5777  47.4036   C.3       1 RES1   0.0000
     3 C3     -11.2173   8.3355  46.5179   C.3       1 RES1   0.0000
     4 C4     -11.2435   6.9060  46.0900   C.3       1 RES1   0.0000
     5 C5     -12.5230   6.3357  46.6518   C.3       1 RES1   0.0000
     6 N6     -12.8319   7.1885  47.8264   N.3       1 RES1   1.0000
     7 C7     -14.2284   7.0517  48.2674   C.3       1 RES1   0.0000
     8 C8     -14.4833   7.7389  49.5704   C.2       1 RES1   0.0000
     9 N9     -15.6267   8.4169  49.8168   N.2       1 RES1   0.0000
    10 C10    -15.5575   8.8706  51.1226   C.2       1 RES1   0.0000
    11 C11    -16.4189   9.6409  51.9021   C.2       1 RES1   0.0000
    12 C12    -16.0453   9.9269  53.2102   C.2       1 RES1   0.0000
    13 C13    -14.8305   9.4520  53.7259   C.2       1 RES1   0.0000
    14 N14    -14.4736   9.8030  55.0491   N.am      1 RES1   0.0000
    15 C15    -13.3604   9.4400  55.7366   C.2       1 RES1   0.0000
    16 O16    -12.4698   8.7363  55.2646   O.2       1 RES1   0.0000
    17 C17    -13.2126  10.0431  57.0938   C.2       1 RES1   0.0000
    18 C18    -14.3602  10.2729  57.8592   C.2       1 RES1   0.0000
    19 C19    -14.2766  10.8209  59.1320   C.2       1 RES1   0.0000
    20 C20    -13.0232  11.1142  59.6386   C.2       1 RES1   0.0000
    21 C21    -11.8536  10.8471  58.9132   C.2       1 RES1   0.0000
    22 C22    -10.8019  11.2488  59.7831   C.2       1 RES1   0.0000
    23 N23    -11.2738  11.7384  60.9099   N.2       1 RES1   0.0000
    24 N24    -12.6339  11.6746  60.8098   N.pl3     1 RES1   0.0000
    25 C25    -13.4685  12.2609  61.8430   C.3       1 RES1   0.0000
    26 C26    -11.9515  10.3380  57.6206   C.2       1 RES1   0.0000
    27 C27    -13.9710   8.6946  52.9243   C.2       1 RES1   0.0000
    28 C28    -14.3391   8.4089  51.6120   C.2       1 RES1   0.0000
    29 N29    -13.6686   7.7105  50.6088   N.2       1 RES1   0.0000
@<TRIPOS>BOND
     1     2     1    1
     2     2     3    1
     3     3     4    1
     4     4     5    1
     5     5     6    1
     6     6     7    1
     7     7     8    1
     8     8     9    2
     9     9    10    1
    10    10    11    2
    11    11    12    1
    12    12    13    2
    13    13    14    1
    14    14    15   am
    15    15    16    2
    16    15    17    1
    17    17    18    2
    18    18    19    1
    19    19    20    2
    20    20    21    1
    21    21    22    1
    22    22    23    2
    23    23    24    1
    24    24    25    1
    25    21    26    2
    26    13    27    1
    27    27    28    2
    28    28    29    1
    29     6     2    1
    30    29     8    1
    31    28    10    1
    32    26    17    1
    33    24    20    1
@<TRIPOS>SUBSTRUCTURE
     1 RES1        1 GROUP             0 ****  ****    0  
@<TRIPOS>MOLECULE
ligand_67
    29    33     1     0     0
SMALL
USER_CHARGES
****
Generated from the CSD

@<TRIPOS>ATOM
     1 C1     -12.2118   9.4960  48.5856   C.3       1 RES1   0.0000
     2 C2     -12.4378   8.5800  47.4021   C.3       1 RES1   0.0000
     3 C3     -11.2203   8.3393  46.5155   C.3       1 RES1   0.0000
     4 C4     -11.2449   6.9097  46.0878   C.3       1 RES1   0.0000
     5 C5     -12.5233   6.3378  46.6506   C.3       1 RES1   0.0000
     6 N6     -12.8324   7.1903  47.8253   N.3       1 RES1   1.0000
     7 C7     -14.2284   7.0517  48.2674   C.3       1 RES1   0.0000
     8 C8     -14.4833   7.7389  49.5704   C.2       1 RES1   0.0000
     9 N9     -15.6267   8.4169  49.8168   N.2       1 RES1   0.0000
    10 C10    -15.5575   8.8706  51.1226   C.2       1 RES1   0.0000
    11 C11    -16.4189   9.6409  51.9021   C.2       1 RES1   0.0000
    12 C12    -16.0453   9.9269  53.2102   C.2       1 RES1   0.0000
    13 C13    -14.8305   9.4520  53.7259   C.2       1 RES1   0.0000
    14 N14    -14.4736   9.8030  55.0491   N.am      1 RES1   0.0000
    15 C15    -13.3704   9.4233  55.7438   C.2       1 RES1   0.0000
    16 O16    -12.5338   8.6333  55.3111   O.2       1 RES1   0.0000
    17 C17    -13.1585  10.1140  57.0497   C.2       1 RES1   0.0000
    18 C18    -13.6813  11.3990  57.2266   C.2       1 RES1   0.0000
    19 C19    -13.5220  12.0801  58.4258   C.2       1 RES1   0.0000
    20 C20    -12.8513  11.4460  59.4561   C.2       1 RES1   0.0000
    21 C21    -12.3613  10.1392  59.3229   C.2       1 RES1   0.0000
    22 C22    -11.7865   9.8492  60.5916   C.2       1 RES1   0.0000
    23 N23    -11.8849  10.8770  61.4076   N.2       1 RES1   0.0000
    24 N24    -12.5177  11.8603  60.7029   N.pl3     1 RES1   0.0000
    25 C25    -12.6697  13.1850  61.2769   C.3       1 RES1   0.0000
    26 C26    -12.4884   9.4821  58.1016   C.2       1 RES1   0.0000
    27 C27    -13.9710   8.6946  52.9243   C.2       1 RES1   0.0000
    28 C28    -14.3391   8.4089  51.6120   C.2       1 RES1   0.0000
    29 N29    -13.6686   7.7105  50.6088   N.2       1 RES1   0.0000
@<TRIPOS>BOND
     1     2     1    1
     2     2     3    1
     3     3     4    1
     4     4     5    1
     5     5     6    1
     6     6     7    1
     7     7     8    1
     8     8     9    2
     9     9    10    1
    10    10    11    2
    11    11    12    1
    12    12    13    2
    13    13    14    1
    14    14    15   am
    15    15    16    2
    16    15    17    1
    17    17    18    2
    18    18    19    1
    19    19    20    2
    20    20    21    1
    21    21    22    1
    22    22    23    2
    23    23    24    1
    24    24    25    1
    25    21    26    2
    26    13    27    1
    27    27    28    2
    28    28    29    1
    29     6     2    1
    30    29     8    1
    31    28    10    1
    32    26    17    1
    33    24    20    1
@<TRIPOS>SUBSTRUCTURE
     1 RES1        1 GROUP             0 ****  ****    0  
@<TRIPOS>MOLECULE
ligand_68
    29    33     1     0     0
SMALL
USER_CHARGES
****
Generated from the CSD

@<TRIPOS>ATOM
     1 C1     -12.2135   9.4979  48.5821   C.3       1 RES1   0.0000
     2 C2     -12.4389   8.5801  47.3999   C.3       1 RES1   0.0000
     3 C3     -11.2213   8.3390  46.5136   C.3       1 RES1   0.0000
     4 C4     -11.2449   6.9087  46.0879   C.3       1 RES1   0.0000
     5 C5     -12.5228   6.3367  46.6516   C.3       1 RES1   0.0000
     6 N6     -12.8325   7.1907  47.8251   N.3       1 RES1   1.0000
     7 C7     -14.2284   7.0517  48.2674   C.3       1 RES1   0.0000
     8 C8     -14.4833   7.7389  49.5704   C.2       1 RES1   0.0000
     9 N9     -15.6267   8.4169  49.8168   N.2       1 RES1   0.0000
    10 C10    -15.5575   8.8706  51.1226   C.2       1 RES1   0.0000
    11 C11    -16.4189   9.6409  51.9021   C.2       1 RES1   0.0000
    12 C12    -16.0453   9.9269  53.2102   C.2       1 RES1   0.0000
    13 C13    -14.8305   9.4520  53.7259   C.2       1 RES1   0.0000
    14 N14    -14.4736   9.8030  55.0491   N.am      1 RES1   0.0000
    15 C15    -15.1572  10.5942  55.9152   C.2       1 RES1   0.0000
    16 O16    -16.2055  11.1685  55.6280   O.2       1 RES1   0.0000
    17 C17    -14.6188  10.6474  57.3062   C.2       1 RES1   0.0000
    18 C18    -14.9001  11.7661  58.0968   C.2       1 RES1   0.0000
    19 C19    -14.4329  11.8597  59.4007   C.2       1 RES1   0.0000
    20 C20    -13.6985  10.8045  59.9115   C.2       1 RES1   0.0000
    21 C21    -13.4449   9.6496  59.1582   C.2       1 RES1   0.0000
    22 C22    -12.7099   8.8098  60.0405   C.2       1 RES1   0.0000
    23 N23    -12.5067   9.3963  61.2010   N.2       1 RES1   0.0000
    24 N24    -13.0943  10.6254  61.1116   N.pl3     1 RES1   0.0000
    25 C25    -12.9399  11.5865  62.1886   C.3       1 RES1   0.0000
    26 C26    -13.8809   9.5851  57.8371   C.2       1 RES1   0.0000
    27 C27    -13.9710   8.6946  52.9243   C.2       1 RES1   0.0000
    28 C28    -14.3391   8.4089  51.6120   C.2       1 RES1   0.0000
    29 N29    -13.6686   7.7105  50.6088   N.2       1 RES1   0.0000
@<TRIPOS>BOND
     1     2     1    1
     2     2     3    1
     3     3     4    1
     4     4     5    1
     5     5     6    1
     6     6     7    1
     7     7     8    1
     8     8     9    2
     9     9    10    1
    10    10    11    2
    11    11    12    1
    12    12    13    2
    13    13    14    1
    14    14    15   am
    15    15    16    2
    16    15    17    1
    17    17    18    2
    18    18    19    1
    19    19    20    2
    20    20    21    1
    21    21    22    1
    22    22    23    2
    23    23    24    1
    24    24    25    1
    25    21    26    2
    26    13    27    1
    27    27    28    2
    28    28    29    1
    29     6     2    1
    30    29     8    1
    31    28    10    1
    32    26    17    1
    33    24    20    1
@<TRIPOS>SUBSTRUCTURE
     1 RES1        1 GROUP             0 ****  ****    0  
@<TRIPOS>MOLECULE
ligand_69
    29    33     1     0     0
SMALL
USER_CHARGES
****
Generated from the CSD

@<TRIPOS>ATOM
     1 C1     -12.2139   9.4983  48.5819   C.3       1 RES1   0.0000
     2 C2     -12.4392   8.5803  47.3997   C.3       1 RES1   0.0000
     3 C3     -11.2216   8.3394  46.5133   C.3       1 RES1   0.0000
     4 C4     -11.2450   6.9092  46.0877   C.3       1 RES1   0.0000
     5 C5     -12.5228   6.3370  46.6515   C.3       1 RES1   0.0000
     6 N6     -12.8326   7.1909  47.8250   N.3       1 RES1   1.0000
     7 C7     -14.2284   7.0517  48.2674   C.3       1 RES1   0.0000
     8 C8     -14.4833   7.7389  49.5704   C.2       1 RES1   0.0000
     9 N9     -15.6267   8.4169  49.8168   N.2       1 RES1   0.0000
    10 C10    -15.5575   8.8706  51.1226   C.2       1 RES1   0.0000
    11 C11    -16.4189   9.6409  51.9021   C.2       1 RES1   0.0000
    12 C12    -16.0453   9.9269  53.2102   C.2       1 RES1   0.0000
    13 C13    -14.8305   9.4520  53.7259   C.2       1 RES1   0.0000
    14 N14    -14.4736   9.8030  55.0491   N.am      1 RES1   0.0000
    15 C15    -15.1680  10.5762  55.9229   C.2       1 RES1   0.0000
    16 O16    -16.2528  11.0915  55.6604   O.2       1 RES1   0.0000
    17 C17    -14.5882  10.6840  57.2940   C.2       1 RES1   0.0000
    18 C18    -15.4536  10.8133  58.3848   C.2       1 RES1   0.0000
    19 C19    -14.9659  10.9056  59.6813   C.2       1 RES1   0.0000
    20 C20    -13.5974  10.8424  59.8732   C.2       1 RES1   0.0000
    21 C21    -12.7102  10.6623  58.8027   C.2       1 RES1   0.0000
    22 C22    -11.4271  10.6120  59.4153   C.2       1 RES1   0.0000
    23 N23    -11.5125  10.7740  60.7185   N.2       1 RES1   0.0000
    24 N24    -12.8399  10.9363  60.9933   N.pl3     1 RES1   0.0000
    25 C25    -13.2695  11.2697  62.3394   C.3       1 RES1   0.0000
    26 C26    -13.2074  10.6148  57.5027   C.2       1 RES1   0.0000
    27 C27    -13.9710   8.6946  52.9243   C.2       1 RES1   0.0000
    28 C28    -14.3391   8.4089  51.6120   C.2       1 RES1   0.0000
    29 N29    -13.6686   7.7105  50.6088   N.2       1 RES1   0.0000
@<TRIPOS>BOND
     1     2     1    1
     2     2     3    1
     3     3     4    1
     4     4     5    1
     5     5     6    1
     6     6     7    1
     7     7     8    1
     8     8     9    2
     9     9    10    1
    10    10    11    2
    11    11    12    1
    12    12    13    2
    13    13    14    1
    14    14    15   am
    15    15    16    2
    16    15    17    1
    17    17    18    2
    18    18    19    1
    19    19    20    2
    20    20    21    1
    21    21    22    1
    22    22    23    2
    23    23    24    1
    24    24    25    1
    25    21    26    2
    26    13    27    1
    27    27    28    2
    28    28    29    1
    29     6     2    1
    30    29     8    1
    31    28    10    1
    32    26    17    1
    33    24    20    1
@<TRIPOS>SUBSTRUCTURE
     1 RES1        1 GROUP             0 ****  ****    0  
@<TRIPOS>MOLECULE
ligand_70
    29    33     1     0     0
SMALL
USER_CHARGES
****
Generated from the CSD

@<TRIPOS>ATOM
     1 C1     -12.2061   9.4907  48.5906   C.3       1 RES1   0.0000
     2 C2     -12.4330   8.5765  47.4058   C.3       1 RES1   0.0000
     3 C3     -11.2152   8.3338  46.5203   C.3       1 RES1   0.0000
     4 C4     -11.2428   6.9047  46.0910   C.3       1 RES1   0.0000
     5 C5     -12.5232   6.3354  46.6517   C.3       1 RES1   0.0000
     6 N6     -12.8316   7.1873  47.8271   N.3       1 RES1   1.0000
     7 C7     -14.2284   7.0517  48.2674   C.3       1 RES1   0.0000
     8 C8     -14.4833   7.7389  49.5704   C.2       1 RES1   0.0000
     9 N9     -15.6267   8.4169  49.8168   N.2       1 RES1   0.0000
    10 C10    -15.5575   8.8706  51.1226   C.2       1 RES1   0.0000
    11 C11    -16.4189   9.6409  51.9021   C.2       1 RES1   0.0000
    12 C12    -16.0453   9.9269  53.2102   C.2       1 RES1   0.0000
    13 C13    -14.8305   9.4520  53.7259   C.2       1 RES1   0.0000
    14 N14    -14.4736   9.8030  55.0491   N.am      1 RES1   0.0000
    15 C15    -15.1721  10.5690  55.9260   C.2       1 RES1   0.0000
    16 O16    -16.2699  11.0612  55.6732   O.2       1 RES1   0.0000
    17 C17    -14.5777  10.6982  57.2888   C.2       1 RES1   0.0000
    18 C18    -13.1855  10.7268  57.4183   C.2       1 RES1   0.0000
    19 C19    -12.5826  10.8569  58.6620   C.2       1 RES1   0.0000
    20 C20    -13.3949  10.9825  59.7747   C.2       1 RES1   0.0000
    21 C21    -14.7926  11.0079  59.6682   C.2       1 RES1   0.0000
    22 C22    -15.2430  11.1868  61.0058   C.2       1 RES1   0.0000
    23 N23    -14.2331  11.2358  61.8482   N.2       1 RES1   0.0000
    24 N24    -13.1043  11.0889  61.0943   N.pl3     1 RES1   0.0000
    25 C25    -11.8090  10.9678  61.7386   C.3       1 RES1   0.0000
    26 C26    -15.3870  10.8327  58.4210   C.2       1 RES1   0.0000
    27 C27    -13.9710   8.6946  52.9243   C.2       1 RES1   0.0000
    28 C28    -14.3391   8.4089  51.6120   C.2       1 RES1   0.0000
    29 N29    -13.6686   7.7105  50.6088   N.2       1 RES1   0.0000
@<TRIPOS>BOND
     1     2     1    1
     2     2     3    1
     3     3     4    1
     4     4     5    1
     5     5     6    1
     6     6     7    1
     7     7     8    1
     8     8     9    2
     9     9    10    1
    10    10    11    2
    11    11    12    1
    12    12    13    2
    13    13    14    1
    14    14    15   am
    15    15    16    2
    16    15    17    1
    17    17    18    2
    18    18    19    1
    19    19    20    2
    20    20    21    1
    21    21    22    1
    22    22    23    2
    23    23    24    1
    24    24    25    1
    25    21    26    2
    26    13    27    1
    27    27    28    2
    28    28    29    1
    29     6     2    1
    30    29     8    1
    31    28    10    1
    32    26    17    1
    33    24    20    1
@<TRIPOS>SUBSTRUCTURE
     1 RES1        1 GROUP             0 ****  ****    0  
@<TRIPOS>MOLECULE
ligand_71
    29    33     1     0     0
SMALL
USER_CHARGES
****
Generated from the CSD

@<TRIPOS>ATOM
     1 C1     -12.2089   9.4935  48.5869   C.3       1 RES1   0.0000
     2 C2     -12.4352   8.5777  47.4033   C.3       1 RES1   0.0000
     3 C3     -11.2173   8.3353  46.5176   C.3       1 RES1   0.0000
     4 C4     -11.2434   6.9057  46.0901   C.3       1 RES1   0.0000
     5 C5     -12.5229   6.3355  46.6520   C.3       1 RES1   0.0000
     6 N6     -12.8319   7.1885  47.8264   N.3       1 RES1   1.0000
     7 C7     -14.2284   7.0517  48.2674   C.3       1 RES1   0.0000
     8 C8     -14.4833   7.7389  49.5704   C.2       1 RES1   0.0000
     9 N9     -15.6267   8.4169  49.8168   N.2       1 RES1   0.0000
    10 C10    -15.5575   8.8706  51.1226   C.2       1 RES1   0.0000
    11 C11    -16.4189   9.6409  51.9021   C.2       1 RES1   0.0000
    12 C12    -16.0453   9.9269  53.2102   C.2       1 RES1   0.0000
    13 C13    -14.8305   9.4520  53.7259   C.2       1 RES1   0.0000
    14 N14    -14.4736   9.8030  55.0491   N.am      1 RES1   0.0000
    15 C15    -15.1542  10.5991  55.9132   C.2       1 RES1   0.0000
    16 O16    -16.1835  11.2015  55.6148   O.2       1 RES1   0.0000
    17 C17    -14.6401  10.6219  57.3141   C.2       1 RES1   0.0000
    18 C18    -13.9443   9.5087  57.7963   C.2       1 RES1   0.0000
    19 C19    -13.4358   9.4840  59.0878   C.2       1 RES1   0.0000
    20 C20    -13.6129  10.6013  59.8839   C.2       1 RES1   0.0000
    21 C21    -14.2620  11.7497  59.4090   C.2       1 RES1   0.0000
    22 C22    -14.2013  12.6626  60.4985   C.2       1 RES1   0.0000
    23 N23    -13.6062  12.1240  61.5414   N.2       1 RES1   0.0000
    24 N24    -13.2664  10.8551  61.1695   N.pl3     1 RES1   0.0000
    25 C25    -12.7027   9.9372  62.1428   C.3       1 RES1   0.0000
    26 C26    -14.8063  11.7472  58.1271   C.2       1 RES1   0.0000
    27 C27    -13.9710   8.6946  52.9243   C.2       1 RES1   0.0000
    28 C28    -14.3391   8.4089  51.6120   C.2       1 RES1   0.0000
    29 N29    -13.6686   7.7105  50.6088   N.2       1 RES1   0.0000
@<TRIPOS>BOND
     1     2     1    1
     2     2     3    1
     3     3     4    1
     4     4     5    1
     5     5     6    1
     6     6     7    1
     7     7     8    1
     8     8     9    2
     9     9    10    1
    10    10    11    2
    11    11    12    1
    12    12    13    2
    13    13    14    1
    14    14    15   am
    15    15    16    2
    16    15    17    1
    17    17    18    2
    18    18    19    1
    19    19    20    2
    20    20    21    1
    21    21    22    1
    22    22    23    2
    23    23    24    1
    24    24    25    1
    25    21    26    2
    26    13    27    1
    27    27    28    2
    28    28    29    1
    29     6     2    1
    30    29     8    1
    31    28    10    1
    32    26    17    1
    33    24    20    1
@<TRIPOS>SUBSTRUCTURE
     1 RES1        1 GROUP             0 ****  ****    0  
@<TRIPOS>MOLECULE
ligand_72
    29    33     1     0     0
SMALL
USER_CHARGES
****
Generated from the CSD

@<TRIPOS>ATOM
     1 C1     -12.1583   9.4661  48.5935   C.3       1 RES1   0.0000
     2 C2     -12.3879   8.5465  47.4134   C.3       1 RES1   0.0000
     3 C3     -11.1238   8.3014  46.5910   C.3       1 RES1   0.0000
     4 C4     -10.5311   7.0379  47.1871   C.3       1 RES1   0.0000
     5 C5     -11.7447   6.1839  47.4200   C.3       1 RES1   0.0000
     6 N6     -12.7993   7.1575  47.9144   N.3       1 RES1   1.0000
     7 C7     -14.1625   6.7780  47.5125   C.3       1 RES1   0.0000
     8 C8     -15.2082   7.5649  48.2351   C.2       1 RES1   0.0000
     9 N9     -15.0710   8.8860  48.4874   N.2       1 RES1   0.0000
    10 C10    -16.2342   9.3042  49.1102   C.2       1 RES1   0.0000
    11 C11    -16.6421  10.5352  49.6215   C.2       1 RES1   0.0000
    12 C12    -17.9037  10.6235  50.1982   C.2       1 RES1   0.0000
    13 C13    -18.7393   9.4990  50.2634   C.2       1 RES1   0.0000
    14 N14    -19.9981   9.6267  50.8963   N.am      1 RES1   0.0000
    15 C15    -21.1449   8.9564  50.6148   C.2       1 RES1   0.0000
    16 O16    -21.2448   8.1322  49.7082   O.2       1 RES1   0.0000
    17 C17    -22.2802   9.1933  51.5542   C.2       1 RES1   0.0000
    18 C18    -23.5871   8.9944  51.0976   C.2       1 RES1   0.0000
    19 C19    -24.6775   9.1898  51.9343   C.2       1 RES1   0.0000
    20 C20    -24.4399   9.5647  53.2445   C.2       1 RES1   0.0000
    21 C21    -23.1386   9.7218  53.7422   C.2       1 RES1   0.0000
    22 C22    -23.3254  10.0652  55.1101   C.2       1 RES1   0.0000
    23 N23    -24.6036  10.1412  55.4141   N.2       1 RES1   0.0000
    24 N24    -25.2833   9.8555  54.2650   N.pl3     1 RES1   0.0000
    25 C25    -26.7291   9.9807  54.2238   C.3       1 RES1   0.0000
    26 C26    -22.0540   9.5659  52.8827   C.2       1 RES1   0.0000
    27 C27    -18.3072   8.2680  49.7604   C.2       1 RES1   0.0000
    28 C28    -17.0424   8.1736  49.1853   C.2       1 RES1   0.0000
    29 N29    -16.3675   7.0815  48.6417   N.2       1 RES1   0.0000
@<TRIPOS>BOND
     1     2     1    1
     2     2     3    1
     3     3     4    1
     4     4     5    1
     5     5     6    1
     6     6     7    1
     7     7     8    1
     8     8     9    2
     9     9    10    1
    10    10    11    2
    11    11    12    1
    12    12    13    2
    13    13    14    1
    14    14    15   am
    15    15    16    2
    16    15    17    1
    17    17    18    2
    18    18    19    1
    19    19    20    2
    20    20    21    1
    21    21    22    1
    22    22    23    2
    23    23    24    1
    24    24    25    1
    25    21    26    2
    26    13    27    1
    27    27    28    2
    28    28    29    1
    29     6     2    1
    30    29     8    1
    31    28    10    1
    32    26    17    1
    33    24    20    1
@<TRIPOS>SUBSTRUCTURE
     1 RES1        1 GROUP             0 ****  ****    0  
@<TRIPOS>MOLECULE
ligand_73
    29    33     1     0     0
SMALL
USER_CHARGES
****
Generated from the CSD

@<TRIPOS>ATOM
     1 C1     -12.1585   9.4659  48.5943   C.3       1 RES1   0.0000
     2 C2     -12.3881   8.5467  47.4139   C.3       1 RES1   0.0000
     3 C3     -11.1240   8.3020  46.5913   C.3       1 RES1   0.0000
     4 C4     -10.5311   7.0383  47.1869   C.3       1 RES1   0.0000
     5 C5     -11.7447   6.1842  47.4196   C.3       1 RES1   0.0000
     6 N6     -12.7993   7.1574  47.9144   N.3       1 RES1   1.0000
     7 C7     -14.1625   6.7780  47.5125   C.3       1 RES1   0.0000
     8 C8     -15.2082   7.5649  48.2351   C.2       1 RES1   0.0000
     9 N9     -15.0710   8.8860  48.4874   N.2       1 RES1   0.0000
    10 C10    -16.2342   9.3042  49.1102   C.2       1 RES1   0.0000
    11 C11    -16.6421  10.5352  49.6215   C.2       1 RES1   0.0000
    12 C12    -17.9037  10.6235  50.1982   C.2       1 RES1   0.0000
    13 C13    -18.7393   9.4990  50.2634   C.2       1 RES1   0.0000
    14 N14    -19.9981   9.6267  50.8963   N.am      1 RES1   0.0000
    15 C15    -21.1459   8.9592  50.6123   C.2       1 RES1   0.0000
    16 O16    -21.2389   8.1161  49.7224   O.2       1 RES1   0.0000
    17 C17    -22.2931   9.2252  51.5291   C.2       1 RES1   0.0000
    18 C18    -23.1990   8.1933  51.7941   C.2       1 RES1   0.0000
    19 C19    -24.2763   8.3853  52.6484   C.2       1 RES1   0.0000
    20 C20    -24.4209   9.6205  53.2541   C.2       1 RES1   0.0000
    21 C21    -23.4993  10.6564  53.0459   C.2       1 RES1   0.0000
    22 C22    -23.9763  11.7196  53.8620   C.2       1 RES1   0.0000
    23 N23    -25.0879  11.3851  54.4820   N.2       1 RES1   0.0000
    24 N24    -25.3692  10.1075  54.0913   N.pl3     1 RES1   0.0000
    25 C25    -26.6130   9.4788  54.4978   C.3       1 RES1   0.0000
    26 C26    -22.4473  10.4668  52.1532   C.2       1 RES1   0.0000
    27 C27    -18.3072   8.2680  49.7604   C.2       1 RES1   0.0000
    28 C28    -17.0424   8.1736  49.1853   C.2       1 RES1   0.0000
    29 N29    -16.3675   7.0815  48.6417   N.2       1 RES1   0.0000
@<TRIPOS>BOND
     1     2     1    1
     2     2     3    1
     3     3     4    1
     4     4     5    1
     5     5     6    1
     6     6     7    1
     7     7     8    1
     8     8     9    2
     9     9    10    1
    10    10    11    2
    11    11    12    1
    12    12    13    2
    13    13    14    1
    14    14    15   am
    15    15    16    2
    16    15    17    1
    17    17    18    2
    18    18    19    1
    19    19    20    2
    20    20    21    1
    21    21    22    1
    22    22    23    2
    23    23    24    1
    24    24    25    1
    25    21    26    2
    26    13    27    1
    27    27    28    2
    28    28    29    1
    29     6     2    1
    30    29     8    1
    31    28    10    1
    32    26    17    1
    33    24    20    1
@<TRIPOS>SUBSTRUCTURE
     1 RES1        1 GROUP             0 ****  ****    0  
@<TRIPOS>MOLECULE
ligand_74
    29    33     1     0     0
SMALL
USER_CHARGES
****
Generated from the CSD

@<TRIPOS>ATOM
     1 C1     -12.1586   9.4650  48.5967   C.3       1 RES1   0.0000
     2 C2     -12.3882   8.5469  47.4155   C.3       1 RES1   0.0000
     3 C3     -11.1241   8.3030  46.5926   C.3       1 RES1   0.0000
     4 C4     -10.5312   7.0388  47.1870   C.3       1 RES1   0.0000
     5 C5     -11.7446   6.1844  47.4189   C.3       1 RES1   0.0000
     6 N6     -12.7993   7.1571  47.9147   N.3       1 RES1   1.0000
     7 C7     -14.1625   6.7780  47.5125   C.3       1 RES1   0.0000
     8 C8     -15.2082   7.5649  48.2351   C.2       1 RES1   0.0000
     9 N9     -15.0710   8.8860  48.4874   N.2       1 RES1   0.0000
    10 C10    -16.2342   9.3042  49.1102   C.2       1 RES1   0.0000
    11 C11    -16.6421  10.5352  49.6215   C.2       1 RES1   0.0000
    12 C12    -17.9037  10.6235  50.1982   C.2       1 RES1   0.0000
    13 C13    -18.7393   9.4990  50.2634   C.2       1 RES1   0.0000
    14 N14    -19.9981   9.6267  50.8963   N.am      1 RES1   0.0000
    15 C15    -21.1462   8.9602  50.6114   C.2       1 RES1   0.0000
    16 O16    -21.2366   8.1096  49.7284   O.2       1 RES1   0.0000
    17 C17    -22.2980   9.2377  51.5191   C.2       1 RES1   0.0000
    18 C18    -22.4492  10.5252  52.0437   C.2       1 RES1   0.0000
    19 C19    -23.5095  10.8384  52.8834   C.2       1 RES1   0.0000
    20 C20    -24.4320   9.8488  53.1720   C.2       1 RES1   0.0000
    21 C21    -24.3326   8.5642  52.6193   C.2       1 RES1   0.0000
    22 C22    -25.4716   7.8765  53.1232   C.2       1 RES1   0.0000
    23 N23    -26.1791   8.6452  53.9235   N.2       1 RES1   0.0000
    24 N24    -25.5287   9.8447  53.9684   N.pl3     1 RES1   0.0000
    25 C25    -25.9820  10.8855  54.8734   C.3       1 RES1   0.0000
    26 C26    -23.2413   8.2487  51.8136   C.2       1 RES1   0.0000
    27 C27    -18.3072   8.2680  49.7604   C.2       1 RES1   0.0000
    28 C28    -17.0424   8.1736  49.1853   C.2       1 RES1   0.0000
    29 N29    -16.3675   7.0815  48.6417   N.2       1 RES1   0.0000
@<TRIPOS>BOND
     1     2     1    1
     2     2     3    1
     3     3     4    1
     4     4     5    1
     5     5     6    1
     6     6     7    1
     7     7     8    1
     8     8     9    2
     9     9    10    1
    10    10    11    2
    11    11    12    1
    12    12    13    2
    13    13    14    1
    14    14    15   am
    15    15    16    2
    16    15    17    1
    17    17    18    2
    18    18    19    1
    19    19    20    2
    20    20    21    1
    21    21    22    1
    22    22    23    2
    23    23    24    1
    24    24    25    1
    25    21    26    2
    26    13    27    1
    27    27    28    2
    28    28    29    1
    29     6     2    1
    30    29     8    1
    31    28    10    1
    32    26    17    1
    33    24    20    1
@<TRIPOS>SUBSTRUCTURE
     1 RES1        1 GROUP             0 ****  ****    0  
@<TRIPOS>MOLECULE
ligand_75
    29    33     1     0     0
SMALL
USER_CHARGES
****
Generated from the CSD

@<TRIPOS>ATOM
     1 C1     -12.1584   9.4667  48.5923   C.3       1 RES1   0.0000
     2 C2     -12.3881   8.5466  47.4126   C.3       1 RES1   0.0000
     3 C3     -11.1240   8.3013  46.5902   C.3       1 RES1   0.0000
     4 C4     -10.5311   7.0381  47.1867   C.3       1 RES1   0.0000
     5 C5     -11.7447   6.1841  47.4200   C.3       1 RES1   0.0000
     6 N6     -12.7993   7.1577  47.9141   N.3       1 RES1   1.0000
     7 C7     -14.1625   6.7780  47.5125   C.3       1 RES1   0.0000
     8 C8     -15.2082   7.5649  48.2351   C.2       1 RES1   0.0000
     9 N9     -15.0710   8.8860  48.4874   N.2       1 RES1   0.0000
    10 C10    -16.2342   9.3042  49.1102   C.2       1 RES1   0.0000
    11 C11    -16.6421  10.5352  49.6215   C.2       1 RES1   0.0000
    12 C12    -17.9037  10.6235  50.1982   C.2       1 RES1   0.0000
    13 C13    -18.7393   9.4990  50.2634   C.2       1 RES1   0.0000
    14 N14    -19.9981   9.6267  50.8963   N.am      1 RES1   0.0000
    15 C15    -21.1437   8.9531  50.6179   C.2       1 RES1   0.0000
    16 O16    -21.2483   8.1408  49.7011   O.2       1 RES1   0.0000
    17 C17    -22.2702   9.1697  51.5726   C.2       1 RES1   0.0000
    18 C18    -21.9772   9.5201  52.8944   C.2       1 RES1   0.0000
    19 C19    -22.9884   9.7439  53.8189   C.2       1 RES1   0.0000
    20 C20    -24.3006   9.6355  53.3947   C.2       1 RES1   0.0000
    21 C21    -24.6229   9.3354  52.0637   C.2       1 RES1   0.0000
    22 C22    -26.0451   9.3558  52.0341   C.2       1 RES1   0.0000
    23 N23    -26.5448   9.6108  53.2246   N.2       1 RES1   0.0000
    24 N24    -25.4751   9.7602  54.0597   N.pl3     1 RES1   0.0000
    25 C25    -25.6829   9.9240  55.4871   C.3       1 RES1   0.0000
    26 C26    -23.6010   9.0700  51.1555   C.2       1 RES1   0.0000
    27 C27    -18.3072   8.2680  49.7604   C.2       1 RES1   0.0000
    28 C28    -17.0424   8.1736  49.1853   C.2       1 RES1   0.0000
    29 N29    -16.3675   7.0815  48.6417   N.2       1 RES1   0.0000
@<TRIPOS>BOND
     1     2     1    1
     2     2     3    1
     3     3     4    1
     4     4     5    1
     5     5     6    1
     6     6     7    1
     7     7     8    1
     8     8     9    2
     9     9    10    1
    10    10    11    2
    11    11    12    1
    12    12    13    2
    13    13    14    1
    14    14    15   am
    15    15    16    2
    16    15    17    1
    17    17    18    2
    18    18    19    1
    19    19    20    2
    20    20    21    1
    21    21    22    1
    22    22    23    2
    23    23    24    1
    24    24    25    1
    25    21    26    2
    26    13    27    1
    27    27    28    2
    28    28    29    1
    29     6     2    1
    30    29     8    1
    31    28    10    1
    32    26    17    1
    33    24    20    1
@<TRIPOS>SUBSTRUCTURE
     1 RES1        1 GROUP             0 ****  ****    0  
@<TRIPOS>MOLECULE
ligand_76
    29    33     1     0     0
SMALL
USER_CHARGES
****
Generated from the CSD

@<TRIPOS>ATOM
     1 C1     -12.1581   9.4655  48.5946   C.3       1 RES1   0.0000
     2 C2     -12.3876   8.5462  47.4142   C.3       1 RES1   0.0000
     3 C3     -11.1233   8.3011  46.5920   C.3       1 RES1   0.0000
     4 C4     -10.5310   7.0373  47.1879   C.3       1 RES1   0.0000
     5 C5     -11.7448   6.1835  47.4203   C.3       1 RES1   0.0000
     6 N6     -12.7993   7.1571  47.9147   N.3       1 RES1   1.0000
     7 C7     -14.1625   6.7780  47.5125   C.3       1 RES1   0.0000
     8 C8     -15.2082   7.5649  48.2351   C.2       1 RES1   0.0000
     9 N9     -15.0710   8.8860  48.4874   N.2       1 RES1   0.0000
    10 C10    -16.2342   9.3042  49.1102   C.2       1 RES1   0.0000
    11 C11    -16.6421  10.5352  49.6215   C.2       1 RES1   0.0000
    12 C12    -17.9037  10.6235  50.1982   C.2       1 RES1   0.0000
    13 C13    -18.7393   9.4990  50.2634   C.2       1 RES1   0.0000
    14 N14    -19.9981   9.6267  50.8963   N.am      1 RES1   0.0000
    15 C15    -20.6794   8.6832  51.5958   C.2       1 RES1   0.0000
    16 O16    -20.2684   7.5378  51.7696   O.2       1 RES1   0.0000
    17 C17    -21.9352   9.1475  52.2552   C.2       1 RES1   0.0000
    18 C18    -22.9389   8.2132  52.5300   C.2       1 RES1   0.0000
    19 C19    -24.1209   8.5912  53.1522   C.2       1 RES1   0.0000
    20 C20    -24.2748   9.9163  53.5180   C.2       1 RES1   0.0000
    21 C21    -23.2644  10.8636  53.3003   C.2       1 RES1   0.0000
    22 C22    -23.7903  12.0686  53.8437   C.2       1 RES1   0.0000
    23 N23    -25.0051  11.8896  54.3173   N.2       1 RES1   0.0000
    24 N24    -25.3073  10.5765  54.0971   N.pl3     1 RES1   0.0000
    25 C25    -26.6388  10.0769  54.3886   C.3       1 RES1   0.0000
    26 C26    -22.1010  10.4825  52.6363   C.2       1 RES1   0.0000
    27 C27    -18.3072   8.2680  49.7604   C.2       1 RES1   0.0000
    28 C28    -17.0424   8.1736  49.1853   C.2       1 RES1   0.0000
    29 N29    -16.3675   7.0815  48.6417   N.2       1 RES1   0.0000
@<TRIPOS>BOND
     1     2     1    1
     2     2     3    1
     3     3     4    1
     4     4     5    1
     5     5     6    1
     6     6     7    1
     7     7     8    1
     8     8     9    2
     9     9    10    1
    10    10    11    2
    11    11    12    1
    12    12    13    2
    13    13    14    1
    14    14    15   am
    15    15    16    2
    16    15    17    1
    17    17    18    2
    18    18    19    1
    19    19    20    2
    20    20    21    1
    21    21    22    1
    22    22    23    2
    23    23    24    1
    24    24    25    1
    25    21    26    2
    26    13    27    1
    27    27    28    2
    28    28    29    1
    29     6     2    1
    30    29     8    1
    31    28    10    1
    32    26    17    1
    33    24    20    1
@<TRIPOS>SUBSTRUCTURE
     1 RES1        1 GROUP             0 ****  ****    0  
@<TRIPOS>MOLECULE
ligand_77
    29    33     1     0     0
SMALL
USER_CHARGES
****
Generated from the CSD

@<TRIPOS>ATOM
     1 C1     -12.1584   9.4665  48.5926   C.3       1 RES1   0.0000
     2 C2     -12.3880   8.5465  47.4128   C.3       1 RES1   0.0000
     3 C3     -11.1238   8.3011  46.5904   C.3       1 RES1   0.0000
     4 C4     -10.5311   7.0378  47.1869   C.3       1 RES1   0.0000
     5 C5     -11.7447   6.1839  47.4201   C.3       1 RES1   0.0000
     6 N6     -12.7993   7.1576  47.9142   N.3       1 RES1   1.0000
     7 C7     -14.1625   6.7780  47.5125   C.3       1 RES1   0.0000
     8 C8     -15.2082   7.5649  48.2351   C.2       1 RES1   0.0000
     9 N9     -15.0710   8.8860  48.4874   N.2       1 RES1   0.0000
    10 C10    -16.2342   9.3042  49.1102   C.2       1 RES1   0.0000
    11 C11    -16.6421  10.5352  49.6215   C.2       1 RES1   0.0000
    12 C12    -17.9037  10.6235  50.1982   C.2       1 RES1   0.0000
    13 C13    -18.7393   9.4990  50.2634   C.2       1 RES1   0.0000
    14 N14    -19.9981   9.6267  50.8963   N.am      1 RES1   0.0000
    15 C15    -20.6816   8.6818  51.5917   C.2       1 RES1   0.0000
    16 O16    -20.2585   7.5445  51.7884   O.2       1 RES1   0.0000
    17 C17    -21.9584   9.1357  52.2173   C.2       1 RES1   0.0000
    18 C18    -22.3554   8.5659  53.4312   C.2       1 RES1   0.0000
    19 C19    -23.5282   8.9611  54.0602   C.2       1 RES1   0.0000
    20 C20    -24.2876   9.9541  53.4680   C.2       1 RES1   0.0000
    21 C21    -23.8871  10.5778  52.2779   C.2       1 RES1   0.0000
    22 C22    -24.8997  11.5464  52.0317   C.2       1 RES1   0.0000
    23 N23    -25.8376  11.5030  52.9538   N.2       1 RES1   0.0000
    24 N24    -25.4713  10.5131  53.8197   N.pl3     1 RES1   0.0000
    25 C25    -26.3654  10.1161  54.8924   C.3       1 RES1   0.0000
    26 C26    -22.7319  10.1432  51.6329   C.2       1 RES1   0.0000
    27 C27    -18.3072   8.2680  49.7604   C.2       1 RES1   0.0000
    28 C28    -17.0424   8.1736  49.1853   C.2       1 RES1   0.0000
    29 N29    -16.3675   7.0815  48.6417   N.2       1 RES1   0.0000
@<TRIPOS>BOND
     1     2     1    1
     2     2     3    1
     3     3     4    1
     4     4     5    1
     5     5     6    1
     6     6     7    1
     7     7     8    1
     8     8     9    2
     9     9    10    1
    10    10    11    2
    11    11    12    1
    12    12    13    2
    13    13    14    1
    14    14    15   am
    15    15    16    2
    16    15    17    1
    17    17    18    2
    18    18    19    1
    19    19    20    2
    20    20    21    1
    21    21    22    1
    22    22    23    2
    23    23    24    1
    24    24    25    1
    25    21    26    2
    26    13    27    1
    27    27    28    2
    28    28    29    1
    29     6     2    1
    30    29     8    1
    31    28    10    1
    32    26    17    1
    33    24    20    1
@<TRIPOS>SUBSTRUCTURE
     1 RES1        1 GROUP             0 ****  ****    0  
@<TRIPOS>MOLECULE
ligand_78
    29    33     1     0     0
SMALL
USER_CHARGES
****
Generated from the CSD

@<TRIPOS>ATOM
     1 C1     -12.1586   9.4644  48.5983   C.3       1 RES1   0.0000
     2 C2     -12.3882   8.5469  47.4165   C.3       1 RES1   0.0000
     3 C3     -11.1240   8.3035  46.5936   C.3       1 RES1   0.0000
     4 C4     -10.5311   7.0390  47.1873   C.3       1 RES1   0.0000
     5 C5     -11.7446   6.1844  47.4187   C.3       1 RES1   0.0000
     6 N6     -12.7993   7.1569  47.9150   N.3       1 RES1   1.0000
     7 C7     -14.1625   6.7780  47.5125   C.3       1 RES1   0.0000
     8 C8     -15.2082   7.5649  48.2351   C.2       1 RES1   0.0000
     9 N9     -15.0710   8.8860  48.4874   N.2       1 RES1   0.0000
    10 C10    -16.2342   9.3042  49.1102   C.2       1 RES1   0.0000
    11 C11    -16.6421  10.5352  49.6215   C.2       1 RES1   0.0000
    12 C12    -17.9037  10.6235  50.1982   C.2       1 RES1   0.0000
    13 C13    -18.7393   9.4990  50.2634   C.2       1 RES1   0.0000
    14 N14    -19.9981   9.6267  50.8963   N.am      1 RES1   0.0000
    15 C15    -20.6825   8.6812  51.5901   C.2       1 RES1   0.0000
    16 O16    -20.2560   7.5464  51.7936   O.2       1 RES1   0.0000
    17 C17    -21.9655   9.1319  52.2053   C.2       1 RES1   0.0000
    18 C18    -22.7385  10.0843  51.5336   C.2       1 RES1   0.0000
    19 C19    -23.9451  10.5284  52.0571   C.2       1 RES1   0.0000
    20 C20    -24.3800   9.9867  53.2534   C.2       1 RES1   0.0000
    21 C21    -23.6499   8.9940  53.9220   C.2       1 RES1   0.0000
    22 C22    -24.4410   8.6858  55.0636   C.2       1 RES1   0.0000
    23 N23    -25.5257   9.4296  55.1089   N.2       1 RES1   0.0000
    24 N24    -25.4749  10.2399  54.0113   N.pl3     1 RES1   0.0000
    25 C25    -26.4679  11.2832  53.8297   C.3       1 RES1   0.0000
    26 C26    -22.4200   8.5878  53.4104   C.2       1 RES1   0.0000
    27 C27    -18.3072   8.2680  49.7604   C.2       1 RES1   0.0000
    28 C28    -17.0424   8.1736  49.1853   C.2       1 RES1   0.0000
    29 N29    -16.3675   7.0815  48.6417   N.2       1 RES1   0.0000
@<TRIPOS>BOND
     1     2     1    1
     2     2     3    1
     3     3     4    1
     4     4     5    1
     5     5     6    1
     6     6     7    1
     7     7     8    1
     8     8     9    2
     9     9    10    1
    10    10    11    2
    11    11    12    1
    12    12    13    2
    13    13    14    1
    14    14    15   am
    15    15    16    2
    16    15    17    1
    17    17    18    2
    18    18    19    1
    19    19    20    2
    20    20    21    1
    21    21    22    1
    22    22    23    2
    23    23    24    1
    24    24    25    1
    25    21    26    2
    26    13    27    1
    27    27    28    2
    28    28    29    1
    29     6     2    1
    30    29     8    1
    31    28    10    1
    32    26    17    1
    33    24    20    1
@<TRIPOS>SUBSTRUCTURE
     1 RES1        1 GROUP             0 ****  ****    0  
@<TRIPOS>MOLECULE
ligand_79
    29    33     1     0     0
SMALL
USER_CHARGES
****
Generated from the CSD

@<TRIPOS>ATOM
     1 C1     -12.1587   9.4666  48.5928   C.3       1 RES1   0.0000
     2 C2     -12.3883   8.5469  47.4129   C.3       1 RES1   0.0000
     3 C3     -11.1243   8.3019  46.5902   C.3       1 RES1   0.0000
     4 C4     -10.5312   7.0386  47.1863   C.3       1 RES1   0.0000
     5 C5     -11.7446   6.1844  47.4195   C.3       1 RES1   0.0000
     6 N6     -12.7993   7.1578  47.9140   N.3       1 RES1   1.0000
     7 C7     -14.1625   6.7780  47.5125   C.3       1 RES1   0.0000
     8 C8     -15.2082   7.5649  48.2351   C.2       1 RES1   0.0000
     9 N9     -15.0710   8.8860  48.4874   N.2       1 RES1   0.0000
    10 C10    -16.2342   9.3042  49.1102   C.2       1 RES1   0.0000
    11 C11    -16.6421  10.5352  49.6215   C.2       1 RES1   0.0000
    12 C12    -17.9037  10.6235  50.1982   C.2       1 RES1   0.0000
    13 C13    -18.7393   9.4990  50.2634   C.2       1 RES1   0.0000
    14 N14    -19.9981   9.6267  50.8963   N.am      1 RES1   0.0000
    15 C15    -20.6779   8.6842  51.5986   C.2       1 RES1   0.0000
    16 O16    -20.2756   7.5334  51.7569   O.2       1 RES1   0.0000
    17 C17    -21.9188   9.1553  52.2810   C.2       1 RES1   0.0000
    18 C18    -22.0124  10.4981  52.6607   C.2       1 RES1   0.0000
    19 C19    -23.1493  10.9893  53.2879   C.2       1 RES1   0.0000
    20 C20    -24.2034  10.1212  53.5087   C.2       1 RES1   0.0000
    21 C21    -24.1562   8.7831  53.0929   C.2       1 RES1   0.0000
    22 C22    -25.4243   8.2556  53.4641   C.2       1 RES1   0.0000
    23 N23    -26.1608   9.1624  54.0701   N.2       1 RES1   0.0000
    24 N24    -25.4028  10.2970  54.1151   N.pl3     1 RES1   0.0000
    25 C25    -25.8769  11.4612  54.8413   C.3       1 RES1   0.0000
    26 C26    -22.9943   8.2902  52.5042   C.2       1 RES1   0.0000
    27 C27    -18.3072   8.2680  49.7604   C.2       1 RES1   0.0000
    28 C28    -17.0424   8.1736  49.1853   C.2       1 RES1   0.0000
    29 N29    -16.3675   7.0815  48.6417   N.2       1 RES1   0.0000
@<TRIPOS>BOND
     1     2     1    1
     2     2     3    1
     3     3     4    1
     4     4     5    1
     5     5     6    1
     6     6     7    1
     7     7     8    1
     8     8     9    2
     9     9    10    1
    10    10    11    2
    11    11    12    1
    12    12    13    2
    13    13    14    1
    14    14    15   am
    15    15    16    2
    16    15    17    1
    17    17    18    2
    18    18    19    1
    19    19    20    2
    20    20    21    1
    21    21    22    1
    22    22    23    2
    23    23    24    1
    24    24    25    1
    25    21    26    2
    26    13    27    1
    27    27    28    2
    28    28    29    1
    29     6     2    1
    30    29     8    1
    31    28    10    1
    32    26    17    1
    33    24    20    1
@<TRIPOS>SUBSTRUCTURE
     1 RES1        1 GROUP             0 ****  ****    0  
@<TRIPOS>MOLECULE
ligand_80
    29    33     1     0     0
SMALL
USER_CHARGES
****
Generated from the CSD

@<TRIPOS>ATOM
     1 C1     -12.1586   9.4663  48.5935   C.3       1 RES1   0.0000
     2 C2     -12.3883   8.5469  47.4133   C.3       1 RES1   0.0000
     3 C3     -11.1243   8.3021  46.5906   C.3       1 RES1   0.0000
     4 C4     -10.5312   7.0386  47.1864   C.3       1 RES1   0.0000
     5 C5     -11.7446   6.1844  47.4194   C.3       1 RES1   0.0000
     6 N6     -12.7993   7.1577  47.9142   N.3       1 RES1   1.0000
     7 C7     -14.1625   6.7780  47.5125   C.3       1 RES1   0.0000
     8 C8     -15.2082   7.5649  48.2351   C.2       1 RES1   0.0000
     9 N9     -15.0710   8.8860  48.4874   N.2       1 RES1   0.0000
    10 C10    -16.2342   9.3042  49.1102   C.2       1 RES1   0.0000
    11 C11    -16.6421  10.5352  49.6215   C.2       1 RES1   0.0000
    12 C12    -17.9037  10.6235  50.1982   C.2       1 RES1   0.0000
    13 C13    -18.7393   9.4990  50.2634   C.2       1 RES1   0.0000
    14 N14    -19.9981   9.6267  50.8963   N.am      1 RES1   0.0000
    15 C15    -20.3262  10.4212  51.9474   C.2       1 RES1   0.0000
    16 O16    -19.5175  11.1337  52.5388   O.2       1 RES1   0.0000
    17 C17    -21.7777  10.4736  52.2908   C.2       1 RES1   0.0000
    18 C18    -22.1511  10.8121  53.5954   C.2       1 RES1   0.0000
    19 C19    -23.4877  10.8860  53.9633   C.2       1 RES1   0.0000
    20 C20    -24.4480  10.6394  52.9987   C.2       1 RES1   0.0000
    21 C21    -24.1024  10.3477  51.6716   C.2       1 RES1   0.0000
    22 C22    -25.3522  10.2032  51.0074   C.2       1 RES1   0.0000
    23 N23    -26.3581  10.3589  51.8415   N.2       1 RES1   0.0000
    24 N24    -25.8015  10.6044  53.0638   N.pl3     1 RES1   0.0000
    25 C25    -26.6439  10.6958  54.2425   C.3       1 RES1   0.0000
    26 C26    -22.7587  10.2332  51.3240   C.2       1 RES1   0.0000
    27 C27    -18.3072   8.2680  49.7604   C.2       1 RES1   0.0000
    28 C28    -17.0424   8.1736  49.1853   C.2       1 RES1   0.0000
    29 N29    -16.3675   7.0815  48.6417   N.2       1 RES1   0.0000
@<TRIPOS>BOND
     1     2     1    1
     2     2     3    1
     3     3     4    1
     4     4     5    1
     5     5     6    1
     6     6     7    1
     7     7     8    1
     8     8     9    2
     9     9    10    1
    10    10    11    2
    11    11    12    1
    12    12    13    2
    13    13    14    1
    14    14    15   am
    15    15    16    2
    16    15    17    1
    17    17    18    2
    18    18    19    1
    19    19    20    2
    20    20    21    1
    21    21    22    1
    22    22    23    2
    23    23    24    1
    24    24    25    1
    25    21    26    2
    26    13    27    1
    27    27    28    2
    28    28    29    1
    29     6     2    1
    30    29     8    1
    31    28    10    1
    32    26    17    1
    33    24    20    1
@<TRIPOS>SUBSTRUCTURE
     1 RES1        1 GROUP             0 ****  ****    0  
@<TRIPOS>MOLECULE
ligand_81
    29    33     1     0     0
SMALL
USER_CHARGES
****
Generated from the CSD

@<TRIPOS>ATOM
     1 C1     -12.1586   9.4666  48.5927   C.3       1 RES1   0.0000
     2 C2     -12.3883   8.5468  47.4128   C.3       1 RES1   0.0000
     3 C3     -11.1243   8.3018  46.5902   C.3       1 RES1   0.0000
     4 C4     -10.5312   7.0385  47.1863   C.3       1 RES1   0.0000
     5 C5     -11.7446   6.1844  47.4196   C.3       1 RES1   0.0000
     6 N6     -12.7993   7.1578  47.9140   N.3       1 RES1   1.0000
     7 C7     -14.1625   6.7780  47.5125   C.3       1 RES1   0.0000
     8 C8     -15.2082   7.5649  48.2351   C.2       1 RES1   0.0000
     9 N9     -15.0710   8.8860  48.4874   N.2       1 RES1   0.0000
    10 C10    -16.2342   9.3042  49.1102   C.2       1 RES1   0.0000
    11 C11    -16.6421  10.5352  49.6215   C.2       1 RES1   0.0000
    12 C12    -17.9037  10.6235  50.1982   C.2       1 RES1   0.0000
    13 C13    -18.7393   9.4990  50.2634   C.2       1 RES1   0.0000
    14 N14    -19.9981   9.6267  50.8963   N.am      1 RES1   0.0000
    15 C15    -20.3250  10.4176  51.9505   C.2       1 RES1   0.0000
    16 O16    -19.5211  11.1472  52.5273   O.2       1 RES1   0.0000
    17 C17    -21.7716  10.4426  52.3168   C.2       1 RES1   0.0000
    18 C18    -22.3184  11.6240  52.8280   C.2       1 RES1   0.0000
    19 C19    -23.6607  11.7033  53.1732   C.2       1 RES1   0.0000
    20 C20    -24.4554  10.5883  52.9766   C.2       1 RES1   0.0000
    21 C21    -23.9447   9.4078  52.4188   C.2       1 RES1   0.0000
    22 C22    -25.0681   8.5375  52.3506   C.2       1 RES1   0.0000
    23 N23    -26.1469   9.1096  52.8413   N.2       1 RES1   0.0000
    24 N24    -25.7640  10.3569  53.2434   N.pl3     1 RES1   0.0000
    25 C25    -26.6975  11.2110  53.9552   C.3       1 RES1   0.0000
    26 C26    -22.5877   9.3250  52.1169   C.2       1 RES1   0.0000
    27 C27    -18.3072   8.2680  49.7604   C.2       1 RES1   0.0000
    28 C28    -17.0424   8.1736  49.1853   C.2       1 RES1   0.0000
    29 N29    -16.3675   7.0815  48.6417   N.2       1 RES1   0.0000
@<TRIPOS>BOND
     1     2     1    1
     2     2     3    1
     3     3     4    1
     4     4     5    1
     5     5     6    1
     6     6     7    1
     7     7     8    1
     8     8     9    2
     9     9    10    1
    10    10    11    2
    11    11    12    1
    12    12    13    2
    13    13    14    1
    14    14    15   am
    15    15    16    2
    16    15    17    1
    17    17    18    2
    18    18    19    1
    19    19    20    2
    20    20    21    1
    21    21    22    1
    22    22    23    2
    23    23    24    1
    24    24    25    1
    25    21    26    2
    26    13    27    1
    27    27    28    2
    28    28    29    1
    29     6     2    1
    30    29     8    1
    31    28    10    1
    32    26    17    1
    33    24    20    1
@<TRIPOS>SUBSTRUCTURE
     1 RES1        1 GROUP             0 ****  ****    0  
@<TRIPOS>MOLECULE
ligand_82
    29    33     1     0     0
SMALL
USER_CHARGES
****
Generated from the CSD

@<TRIPOS>ATOM
     1 C1     -12.1585   9.4664  48.5930   C.3       1 RES1   0.0000
     2 C2     -12.3881   8.5467  47.4130   C.3       1 RES1   0.0000
     3 C3     -11.1240   8.3016  46.5905   C.3       1 RES1   0.0000
     4 C4     -10.5311   7.0382  47.1867   C.3       1 RES1   0.0000
     5 C5     -11.7446   6.1842  47.4198   C.3       1 RES1   0.0000
     6 N6     -12.7993   7.1576  47.9142   N.3       1 RES1   1.0000
     7 C7     -14.1625   6.7780  47.5125   C.3       1 RES1   0.0000
     8 C8     -15.2082   7.5649  48.2351   C.2       1 RES1   0.0000
     9 N9     -15.0710   8.8860  48.4874   N.2       1 RES1   0.0000
    10 C10    -16.2342   9.3042  49.1102   C.2       1 RES1   0.0000
    11 C11    -16.6421  10.5352  49.6215   C.2       1 RES1   0.0000
    12 C12    -17.9037  10.6235  50.1982   C.2       1 RES1   0.0000
    13 C13    -18.7393   9.4990  50.2634   C.2       1 RES1   0.0000
    14 N14    -19.9981   9.6267  50.8963   N.am      1 RES1   0.0000
    15 C15    -20.3244  10.4157  51.9521   C.2       1 RES1   0.0000
    16 O16    -19.5228  11.1527  52.5227   O.2       1 RES1   0.0000
    17 C17    -21.7686  10.4287  52.3285   C.2       1 RES1   0.0000
    18 C18    -22.5133   9.2532  52.1889   C.2       1 RES1   0.0000
    19 C19    -23.8569   9.2091  52.5355   C.2       1 RES1   0.0000
    20 C20    -24.4400  10.3542  53.0475   C.2       1 RES1   0.0000
    21 C21    -23.7044  11.5312  53.2452   C.2       1 RES1   0.0000
    22 C22    -24.6414  12.4393  53.8123   C.2       1 RES1   0.0000
    23 N23    -25.8324  11.8905  53.9235   N.2       1 RES1   0.0000
    24 N24    -25.7112  10.6215  53.4347   N.pl3     1 RES1   0.0000
    25 C25    -26.8860   9.7805  53.2930   C.3       1 RES1   0.0000
    26 C26    -22.3688  11.5772  52.8534   C.2       1 RES1   0.0000
    27 C27    -18.3072   8.2680  49.7604   C.2       1 RES1   0.0000
    28 C28    -17.0424   8.1736  49.1853   C.2       1 RES1   0.0000
    29 N29    -16.3675   7.0815  48.6417   N.2       1 RES1   0.0000
@<TRIPOS>BOND
     1     2     1    1
     2     2     3    1
     3     3     4    1
     4     4     5    1
     5     5     6    1
     6     6     7    1
     7     7     8    1
     8     8     9    2
     9     9    10    1
    10    10    11    2
    11    11    12    1
    12    12    13    2
    13    13    14    1
    14    14    15   am
    15    15    16    2
    16    15    17    1
    17    17    18    2
    18    18    19    1
    19    19    20    2
    20    20    21    1
    21    21    22    1
    22    22    23    2
    23    23    24    1
    24    24    25    1
    25    21    26    2
    26    13    27    1
    27    27    28    2
    28    28    29    1
    29     6     2    1
    30    29     8    1
    31    28    10    1
    32    26    17    1
    33    24    20    1
@<TRIPOS>SUBSTRUCTURE
     1 RES1        1 GROUP             0 ****  ****    0  
@<TRIPOS>MOLECULE
ligand_83
    29    33     1     0     0
SMALL
USER_CHARGES
****
Generated from the CSD

@<TRIPOS>ATOM
     1 C1     -12.1580   9.4650  48.5956   C.3       1 RES1   0.0000
     2 C2     -12.3875   8.5462  47.4149   C.3       1 RES1   0.0000
     3 C3     -11.1233   8.3013  46.5927   C.3       1 RES1   0.0000
     4 C4     -10.5309   7.0373  47.1881   C.3       1 RES1   0.0000
     5 C5     -11.7448   6.1835  47.4202   C.3       1 RES1   0.0000
     6 N6     -12.7993   7.1569  47.9149   N.3       1 RES1   1.0000
     7 C7     -14.1625   6.7780  47.5125   C.3       1 RES1   0.0000
     8 C8     -15.2082   7.5649  48.2351   C.2       1 RES1   0.0000
     9 N9     -15.0710   8.8860  48.4874   N.2       1 RES1   0.0000
    10 C10    -16.2342   9.3042  49.1102   C.2       1 RES1   0.0000
    11 C11    -16.6421  10.5352  49.6215   C.2       1 RES1   0.0000
    12 C12    -17.9037  10.6235  50.1982   C.2       1 RES1   0.0000
    13 C13    -18.7393   9.4990  50.2634   C.2       1 RES1   0.0000
    14 N14    -19.9981   9.6267  50.8963   N.am      1 RES1   0.0000
    15 C15    -20.3273  10.4246  51.9445   C.2       1 RES1   0.0000
    16 O16    -19.5157  11.1248  52.5463   O.2       1 RES1   0.0000
    17 C17    -21.7819  10.4971  52.2708   C.2       1 RES1   0.0000
    18 C18    -22.7143  10.2679  51.2540   C.2       1 RES1   0.0000
    19 C19    -24.0785  10.3122  51.5074   C.2       1 RES1   0.0000
    20 C20    -24.4973  10.5662  52.8011   C.2       1 RES1   0.0000
    21 C21    -23.5843  10.7494  53.8492   C.2       1 RES1   0.0000
    22 C22    -24.4022  10.9410  54.9974   C.2       1 RES1   0.0000
    23 N23    -25.6803  10.9095  54.6849   N.2       1 RES1   0.0000
    24 N24    -25.7350  10.7014  53.3367   N.pl3     1 RES1   0.0000
    25 C25    -27.0105  10.7437  52.6446   C.3       1 RES1   0.0000
    26 C26    -22.2188  10.7462  53.5754   C.2       1 RES1   0.0000
    27 C27    -18.3072   8.2680  49.7604   C.2       1 RES1   0.0000
    28 C28    -17.0424   8.1736  49.1853   C.2       1 RES1   0.0000
    29 N29    -16.3675   7.0815  48.6417   N.2       1 RES1   0.0000
@<TRIPOS>BOND
     1     2     1    1
     2     2     3    1
     3     3     4    1
     4     4     5    1
     5     5     6    1
     6     6     7    1
     7     7     8    1
     8     8     9    2
     9     9    10    1
    10    10    11    2
    11    11    12    1
    12    12    13    2
    13    13    14    1
    14    14    15   am
    15    15    16    2
    16    15    17    1
    17    17    18    2
    18    18    19    1
    19    19    20    2
    20    20    21    1
    21    21    22    1
    22    22    23    2
    23    23    24    1
    24    24    25    1
    25    21    26    2
    26    13    27    1
    27    27    28    2
    28    28    29    1
    29     6     2    1
    30    29     8    1
    31    28    10    1
    32    26    17    1
    33    24    20    1
@<TRIPOS>SUBSTRUCTURE
     1 RES1        1 GROUP             0 ****  ****    0  
@<TRIPOS>MOLECULE
ligand_84
    29    33     1     0     0
SMALL
USER_CHARGES
****
Generated from the CSD

@<TRIPOS>ATOM
     1 C1     -12.1582   9.4649  48.5962   C.3       1 RES1   0.0000
     2 C2     -12.3877   8.5464  47.4153   C.3       1 RES1   0.0000
     3 C3     -11.1234   8.3018  46.5929   C.3       1 RES1   0.0000
     4 C4     -10.5310   7.0377  47.1879   C.3       1 RES1   0.0000
     5 C5     -11.7448   6.1837  47.4198   C.3       1 RES1   0.0000
     6 N6     -12.7993   7.1569  47.9149   N.3       1 RES1   1.0000
     7 C7     -14.1625   6.7780  47.5125   C.3       1 RES1   0.0000
     8 C8     -15.2082   7.5649  48.2351   C.2       1 RES1   0.0000
     9 N9     -15.0710   8.8860  48.4874   N.2       1 RES1   0.0000
    10 C10    -16.2342   9.3042  49.1102   C.2       1 RES1   0.0000
    11 C11    -16.6421  10.5352  49.6215   C.2       1 RES1   0.0000
    12 C12    -17.9037  10.6235  50.1982   C.2       1 RES1   0.0000
    13 C13    -18.7393   9.4990  50.2634   C.2       1 RES1   0.0000
    14 N14    -19.9981   9.6267  50.8963   N.am      1 RES1   0.0000
    15 C15    -20.8129  10.7126  50.9205   C.2       1 RES1   0.0000
    16 O16    -20.5456  11.7750  50.3627   O.2       1 RES1   0.0000
    17 C17    -22.1358  10.5145  51.5824   C.2       1 RES1   0.0000
    18 C18    -22.7948  11.6247  52.1201   C.2       1 RES1   0.0000
    19 C19    -24.0324  11.4963  52.7360   C.2       1 RES1   0.0000
    20 C20    -24.6135  10.2419  52.7850   C.2       1 RES1   0.0000
    21 C21    -23.9984   9.1212  52.2094   C.2       1 RES1   0.0000
    22 C22    -24.9186   8.0604  52.4374   C.2       1 RES1   0.0000
    23 N23    -25.9721   8.4766  53.1073   N.2       1 RES1   0.0000
    24 N24    -25.7725   9.8074  53.3374   N.pl3     1 RES1   0.0000
    25 C25    -26.6990  10.5488  54.1738   C.3       1 RES1   0.0000
    26 C26    -22.7375   9.2535  51.6330   C.2       1 RES1   0.0000
    27 C27    -18.3072   8.2680  49.7604   C.2       1 RES1   0.0000
    28 C28    -17.0424   8.1736  49.1853   C.2       1 RES1   0.0000
    29 N29    -16.3675   7.0815  48.6417   N.2       1 RES1   0.0000
@<TRIPOS>BOND
     1     2     1    1
     2     2     3    1
     3     3     4    1
     4     4     5    1
     5     5     6    1
     6     6     7    1
     7     7     8    1
     8     8     9    2
     9     9    10    1
    10    10    11    2
    11    11    12    1
    12    12    13    2
    13    13    14    1
    14    14    15   am
    15    15    16    2
    16    15    17    1
    17    17    18    2
    18    18    19    1
    19    19    20    2
    20    20    21    1
    21    21    22    1
    22    22    23    2
    23    23    24    1
    24    24    25    1
    25    21    26    2
    26    13    27    1
    27    27    28    2
    28    28    29    1
    29     6     2    1
    30    29     8    1
    31    28    10    1
    32    26    17    1
    33    24    20    1
@<TRIPOS>SUBSTRUCTURE
     1 RES1        1 GROUP             0 ****  ****    0  
@<TRIPOS>MOLECULE
ligand_85
    29    33     1     0     0
SMALL
USER_CHARGES
****
Generated from the CSD

@<TRIPOS>ATOM
     1 C1     -12.1584   9.4665  48.5928   C.3       1 RES1   0.0000
     2 C2     -12.3881   8.5466  47.4129   C.3       1 RES1   0.0000
     3 C3     -11.1240   8.3014  46.5904   C.3       1 RES1   0.0000
     4 C4     -10.5311   7.0381  47.1867   C.3       1 RES1   0.0000
     5 C5     -11.7447   6.1841  47.4199   C.3       1 RES1   0.0000
     6 N6     -12.7993   7.1576  47.9142   N.3       1 RES1   1.0000
     7 C7     -14.1625   6.7780  47.5125   C.3       1 RES1   0.0000
     8 C8     -15.2082   7.5649  48.2351   C.2       1 RES1   0.0000
     9 N9     -15.0710   8.8860  48.4874   N.2       1 RES1   0.0000
    10 C10    -16.2342   9.3042  49.1102   C.2       1 RES1   0.0000
    11 C11    -16.6421  10.5352  49.6215   C.2       1 RES1   0.0000
    12 C12    -17.9037  10.6235  50.1982   C.2       1 RES1   0.0000
    13 C13    -18.7393   9.4990  50.2634   C.2       1 RES1   0.0000
    14 N14    -19.9981   9.6267  50.8963   N.am      1 RES1   0.0000
    15 C15    -20.8104  10.7144  50.9251   C.2       1 RES1   0.0000
    16 O16    -20.5562  11.7676  50.3443   O.2       1 RES1   0.0000
    17 C17    -22.1158  10.5289  51.6244   C.2       1 RES1   0.0000
    18 C18    -23.2360  11.2249  51.1591   C.2       1 RES1   0.0000
    19 C19    -24.4756  11.0789  51.7668   C.2       1 RES1   0.0000
    20 C20    -24.5838  10.2059  52.8344   C.2       1 RES1   0.0000
    21 C21    -23.4888   9.4577  53.2891   C.2       1 RES1   0.0000
    22 C22    -24.0173   8.6725  54.3512   C.2       1 RES1   0.0000
    23 N23    -25.2924   8.9315  54.5490   N.2       1 RES1   0.0000
    24 N24    -25.6309   9.8860  53.6334   N.pl3     1 RES1   0.0000
    25 C25    -26.9493  10.4928  53.6677   C.3       1 RES1   0.0000
    26 C26    -22.2406   9.6447  52.7003   C.2       1 RES1   0.0000
    27 C27    -18.3072   8.2680  49.7604   C.2       1 RES1   0.0000
    28 C28    -17.0424   8.1736  49.1853   C.2       1 RES1   0.0000
    29 N29    -16.3675   7.0815  48.6417   N.2       1 RES1   0.0000
@<TRIPOS>BOND
     1     2     1    1
     2     2     3    1
     3     3     4    1
     4     4     5    1
     5     5     6    1
     6     6     7    1
     7     7     8    1
     8     8     9    2
     9     9    10    1
    10    10    11    2
    11    11    12    1
    12    12    13    2
    13    13    14    1
    14    14    15   am
    15    15    16    2
    16    15    17    1
    17    17    18    2
    18    18    19    1
    19    19    20    2
    20    20    21    1
    21    21    22    1
    22    22    23    2
    23    23    24    1
    24    24    25    1
    25    21    26    2
    26    13    27    1
    27    27    28    2
    28    28    29    1
    29     6     2    1
    30    29     8    1
    31    28    10    1
    32    26    17    1
    33    24    20    1
@<TRIPOS>SUBSTRUCTURE
     1 RES1        1 GROUP             0 ****  ****    0  
@<TRIPOS>MOLECULE
ligand_86
    29    33     1     0     0
SMALL
USER_CHARGES
****
Generated from the CSD

@<TRIPOS>ATOM
     1 C1     -12.1587   9.4643  48.5987   C.3       1 RES1   0.0000
     2 C2     -12.3883   8.5471  47.4168   C.3       1 RES1   0.0000
     3 C3     -11.1242   8.3039  46.5937   C.3       1 RES1   0.0000
     4 C4     -10.5312   7.0393  47.1871   C.3       1 RES1   0.0000
     5 C5     -11.7446   6.1846  47.4184   C.3       1 RES1   0.0000
     6 N6     -12.7993   7.1569  47.9149   N.3       1 RES1   1.0000
     7 C7     -14.1625   6.7780  47.5125   C.3       1 RES1   0.0000
     8 C8     -15.2082   7.5649  48.2351   C.2       1 RES1   0.0000
     9 N9     -15.0710   8.8860  48.4874   N.2       1 RES1   0.0000
    10 C10    -16.2342   9.3042  49.1102   C.2       1 RES1   0.0000
    11 C11    -16.6421  10.5352  49.6215   C.2       1 RES1   0.0000
    12 C12    -17.9037  10.6235  50.1982   C.2       1 RES1   0.0000
    13 C13    -18.7393   9.4990  50.2634   C.2       1 RES1   0.0000
    14 N14    -19.9981   9.6267  50.8963   N.am      1 RES1   0.0000
    15 C15    -20.8096  10.7150  50.9266   C.2       1 RES1   0.0000
    16 O16    -20.5587  11.7660  50.3404   O.2       1 RES1   0.0000
    17 C17    -22.1104  10.5328  51.6353   C.2       1 RES1   0.0000
    18 C18    -22.1582   9.6950  52.7541   C.2       1 RES1   0.0000
    19 C19    -23.3404   9.5006  53.4555   C.2       1 RES1   0.0000
    20 C20    -24.4714  10.1769  53.0348   C.2       1 RES1   0.0000
    21 C21    -24.4398  11.0616  51.9476   C.2       1 RES1   0.0000
    22 C22    -25.7669  11.5683  51.8691   C.2       1 RES1   0.0000
    23 N23    -26.5394  11.0308  52.7892   N.2       1 RES1   0.0000
    24 N24    -25.7490  10.1637  53.4873   N.pl3     1 RES1   0.0000
    25 C25    -26.3310   9.3030  54.5012   C.3       1 RES1   0.0000
    26 C26    -23.2594  11.2154  51.2248   C.2       1 RES1   0.0000
    27 C27    -18.3072   8.2680  49.7604   C.2       1 RES1   0.0000
    28 C28    -17.0424   8.1736  49.1853   C.2       1 RES1   0.0000
    29 N29    -16.3675   7.0815  48.6417   N.2       1 RES1   0.0000
@<TRIPOS>BOND
     1     2     1    1
     2     2     3    1
     3     3     4    1
     4     4     5    1
     5     5     6    1
     6     6     7    1
     7     7     8    1
     8     8     9    2
     9     9    10    1
    10    10    11    2
    11    11    12    1
    12    12    13    2
    13    13    14    1
    14    14    15   am
    15    15    16    2
    16    15    17    1
    17    17    18    2
    18    18    19    1
    19    19    20    2
    20    20    21    1
    21    21    22    1
    22    22    23    2
    23    23    24    1
    24    24    25    1
    25    21    26    2
    26    13    27    1
    27    27    28    2
    28    28    29    1
    29     6     2    1
    30    29     8    1
    31    28    10    1
    32    26    17    1
    33    24    20    1
@<TRIPOS>SUBSTRUCTURE
     1 RES1        1 GROUP             0 ****  ****    0  
@<TRIPOS>MOLECULE
ligand_87
    29    33     1     0     0
SMALL
USER_CHARGES
****
Generated from the CSD

@<TRIPOS>ATOM
     1 C1     -12.1579   9.4643  48.5971   C.3       1 RES1   0.0000
     2 C2     -12.3874   8.5461  47.4160   C.3       1 RES1   0.0000
     3 C3     -11.1230   8.3015  46.5937   C.3       1 RES1   0.0000
     4 C4     -10.5309   7.0372  47.1886   C.3       1 RES1   0.0000
     5 C5     -11.7448   6.1833  47.4201   C.3       1 RES1   0.0000
     6 N6     -12.7994   7.1566  47.9152   N.3       1 RES1   1.0000
     7 C7     -14.1625   6.7780  47.5125   C.3       1 RES1   0.0000
     8 C8     -15.2082   7.5649  48.2351   C.2       1 RES1   0.0000
     9 N9     -15.0710   8.8860  48.4874   N.2       1 RES1   0.0000
    10 C10    -16.2342   9.3042  49.1102   C.2       1 RES1   0.0000
    11 C11    -16.6421  10.5352  49.6215   C.2       1 RES1   0.0000
    12 C12    -17.9037  10.6235  50.1982   C.2       1 RES1   0.0000
    13 C13    -18.7393   9.4990  50.2634   C.2       1 RES1   0.0000
    14 N14    -19.9981   9.6267  50.8963   N.am      1 RES1   0.0000
    15 C15    -20.8143  10.7116  50.9179   C.2       1 RES1   0.0000
    16 O16    -20.5386  11.7800  50.3758   O.2       1 RES1   0.0000
    17 C17    -22.1481  10.5055  51.5552   C.2       1 RES1   0.0000
    18 C18    -22.7082   9.2241  51.5498   C.2       1 RES1   0.0000
    19 C19    -23.9407   8.9768  52.1389   C.2       1 RES1   0.0000
    20 C20    -24.5952  10.0276  52.7562   C.2       1 RES1   0.0000
    21 C21    -24.0334  11.3105  52.8205   C.2       1 RES1   0.0000
    22 C22    -24.9831  12.0728  53.5562   C.2       1 RES1   0.0000
    23 N23    -26.0302  11.3456  53.8831   N.2       1 RES1   0.0000
    24 N24    -25.7997  10.1001  53.3736   N.pl3     1 RES1   0.0000
    25 C25    -26.8309   9.0809  53.4474   C.3       1 RES1   0.0000
    26 C26    -22.8173  11.5573  52.1884   C.2       1 RES1   0.0000
    27 C27    -18.3072   8.2680  49.7604   C.2       1 RES1   0.0000
    28 C28    -17.0424   8.1736  49.1853   C.2       1 RES1   0.0000
    29 N29    -16.3675   7.0815  48.6417   N.2       1 RES1   0.0000
@<TRIPOS>BOND
     1     2     1    1
     2     2     3    1
     3     3     4    1
     4     4     5    1
     5     5     6    1
     6     6     7    1
     7     7     8    1
     8     8     9    2
     9     9    10    1
    10    10    11    2
    11    11    12    1
    12    12    13    2
    13    13    14    1
    14    14    15   am
    15    15    16    2
    16    15    17    1
    17    17    18    2
    18    18    19    1
    19    19    20    2
    20    20    21    1
    21    21    22    1
    22    22    23    2
    23    23    24    1
    24    24    25    1
    25    21    26    2
    26    13    27    1
    27    27    28    2
    28    28    29    1
    29     6     2    1
    30    29     8    1
    31    28    10    1
    32    26    17    1
    33    24    20    1
@<TRIPOS>SUBSTRUCTURE
     1 RES1        1 GROUP             0 ****  ****    0  
@<TRIPOS>MOLECULE
ligand_88
    29    33     1     0     0
SMALL
USER_CHARGES
****
Generated from the CSD

@<TRIPOS>ATOM
     1 C1     -12.0644   9.2547  48.8818   C.3       1 RES1   0.0000
     2 C2     -12.2681   8.4156  47.6386   C.3       1 RES1   0.0000
     3 C3     -10.9660   8.1216  46.8952   C.3       1 RES1   0.0000
     4 C4     -10.5077   6.7896  47.4598   C.3       1 RES1   0.0000
     5 C5     -11.7911   6.0153  47.5579   C.3       1 RES1   0.0000
     6 N6     -12.8102   7.0364  48.0304   N.3       1 RES1   1.0000
     7 C7     -14.1625   6.7780  47.5125   C.3       1 RES1   0.0000
     8 C8     -15.2082   7.5649  48.2351   C.2       1 RES1   0.0000
     9 N9     -16.3546   7.0031  48.6802   N.2       1 RES1   0.0000
    10 C10    -17.0589   7.9900  49.3478   C.2       1 RES1   0.0000
    11 C11    -18.3024   8.0016  49.9776   C.2       1 RES1   0.0000
    12 C12    -18.7305   9.1847  50.5685   C.2       1 RES1   0.0000
    13 C13    -17.9286  10.3347  50.5266   C.2       1 RES1   0.0000
    14 N14    -18.4238  11.5267  51.1057   N.am      1 RES1   0.0000
    15 C15    -17.8020  12.7303  51.1972   C.2       1 RES1   0.0000
    16 O16    -16.6561  12.9346  50.8018   O.2       1 RES1   0.0000
    17 C17    -18.6380  13.8529  51.7151   C.2       1 RES1   0.0000
    18 C18    -18.0045  14.9441  52.3183   C.2       1 RES1   0.0000
    19 C19    -18.7352  16.0190  52.8060   C.2       1 RES1   0.0000
    20 C20    -20.1106  15.9974  52.6596   C.2       1 RES1   0.0000
    21 C21    -20.7670  14.9401  52.0139   C.2       1 RES1   0.0000
    22 C22    -22.1398  15.3128  52.0376   C.2       1 RES1   0.0000
    23 N23    -22.3132  16.4606  52.6576   N.2       1 RES1   0.0000
    24 N24    -21.0721  16.8667  53.0560   N.pl3     1 RES1   0.0000
    25 C25    -20.9245  18.0463  53.8892   C.3       1 RES1   0.0000
    26 C26    -20.0284  13.8470  51.5677   C.2       1 RES1   0.0000
    27 C27    -16.6913  10.3094  49.8760   C.2       1 RES1   0.0000
    28 C28    -16.2599   9.1275  49.2791   C.2       1 RES1   0.0000
    29 N29    -15.1025   8.8409  48.5565   N.2       1 RES1   0.0000
@<TRIPOS>BOND
     1     2     1    1
     2     2     3    1
     3     3     4    1
     4     4     5    1
     5     5     6    1
     6     6     7    1
     7     7     8    1
     8     8     9    2
     9     9    10    1
    10    10    11    2
    11    11    12    1
    12    12    13    2
    13    13    14    1
    14    14    15   am
    15    15    16    2
    16    15    17    1
    17    17    18    2
    18    18    19    1
    19    19    20    2
    20    20    21    1
    21    21    22    1
    22    22    23    2
    23    23    24    1
    24    24    25    1
    25    21    26    2
    26    13    27    1
    27    27    28    2
    28    28    29    1
    29     6     2    1
    30    29     8    1
    31    28    10    1
    32    26    17    1
    33    24    20    1
@<TRIPOS>SUBSTRUCTURE
     1 RES1        1 GROUP             0 ****  ****    0  
@<TRIPOS>MOLECULE
ligand_89
    29    33     1     0     0
SMALL
USER_CHARGES
****
Generated from the CSD

@<TRIPOS>ATOM
     1 C1     -12.0640   9.2522  48.8856   C.3       1 RES1   0.0000
     2 C2     -12.2673   8.4145  47.6415   C.3       1 RES1   0.0000
     3 C3     -10.9650   8.1206  46.8985   C.3       1 RES1   0.0000
     4 C4     -10.5076   6.7878  47.4620   C.3       1 RES1   0.0000
     5 C5     -11.7915   6.0141  47.5586   C.3       1 RES1   0.0000
     6 N6     -12.8104   7.0352  48.0315   N.3       1 RES1   1.0000
     7 C7     -14.1625   6.7780  47.5125   C.3       1 RES1   0.0000
     8 C8     -15.2082   7.5649  48.2351   C.2       1 RES1   0.0000
     9 N9     -16.3546   7.0031  48.6802   N.2       1 RES1   0.0000
    10 C10    -17.0589   7.9900  49.3478   C.2       1 RES1   0.0000
    11 C11    -18.3024   8.0016  49.9776   C.2       1 RES1   0.0000
    12 C12    -18.7305   9.1847  50.5685   C.2       1 RES1   0.0000
    13 C13    -17.9286  10.3347  50.5266   C.2       1 RES1   0.0000
    14 N14    -18.4238  11.5267  51.1057   N.am      1 RES1   0.0000
    15 C15    -17.8058  12.7328  51.1888   C.2       1 RES1   0.0000
    16 O16    -16.6791  12.9505  50.7478   O.2       1 RES1   0.0000
    17 C17    -18.6254  13.8421  51.7590   C.2       1 RES1   0.0000
    18 C18    -18.4254  15.1423  51.2844   C.2       1 RES1   0.0000
    19 C19    -19.1694  16.2075  51.7733   C.2       1 RES1   0.0000
    20 C20    -20.1355  15.9488  52.7289   C.2       1 RES1   0.0000
    21 C21    -20.3916  14.6481  53.1854   C.2       1 RES1   0.0000
    22 C22    -21.4597  14.8055  54.1119   C.2       1 RES1   0.0000
    23 N23    -21.8036  16.0699  54.2353   N.2       1 RES1   0.0000
    24 N24    -20.9770  16.7695  53.4038   N.pl3     1 RES1   0.0000
    25 C25    -21.0076  18.2209  53.3991   C.3       1 RES1   0.0000
    26 C26    -19.6098  13.5936  52.7203   C.2       1 RES1   0.0000
    27 C27    -16.6913  10.3094  49.8760   C.2       1 RES1   0.0000
    28 C28    -16.2599   9.1275  49.2791   C.2       1 RES1   0.0000
    29 N29    -15.1025   8.8409  48.5565   N.2       1 RES1   0.0000
@<TRIPOS>BOND
     1     2     1    1
     2     2     3    1
     3     3     4    1
     4     4     5    1
     5     5     6    1
     6     6     7    1
     7     7     8    1
     8     8     9    2
     9     9    10    1
    10    10    11    2
    11    11    12    1
    12    12    13    2
    13    13    14    1
    14    14    15   am
    15    15    16    2
    16    15    17    1
    17    17    18    2
    18    18    19    1
    19    19    20    2
    20    20    21    1
    21    21    22    1
    22    22    23    2
    23    23    24    1
    24    24    25    1
    25    21    26    2
    26    13    27    1
    27    27    28    2
    28    28    29    1
    29     6     2    1
    30    29     8    1
    31    28    10    1
    32    26    17    1
    33    24    20    1
@<TRIPOS>SUBSTRUCTURE
     1 RES1        1 GROUP             0 ****  ****    0  
@<TRIPOS>MOLECULE
ligand_90
    29    33     1     0     0
SMALL
USER_CHARGES
****
Generated from the CSD

@<TRIPOS>ATOM
     1 C1     -12.0647   9.2538  48.8838   C.3       1 RES1   0.0000
     2 C2     -12.2683   8.4157  47.6400   C.3       1 RES1   0.0000
     3 C3     -10.9662   8.1224  46.8964   C.3       1 RES1   0.0000
     4 C4     -10.5077   6.7900  47.4599   C.3       1 RES1   0.0000
     5 C5     -11.7910   6.0155  47.5574   C.3       1 RES1   0.0000
     6 N6     -12.8103   7.0361  48.0307   N.3       1 RES1   1.0000
     7 C7     -14.1625   6.7780  47.5125   C.3       1 RES1   0.0000
     8 C8     -15.2082   7.5649  48.2351   C.2       1 RES1   0.0000
     9 N9     -16.3546   7.0031  48.6802   N.2       1 RES1   0.0000
    10 C10    -17.0589   7.9900  49.3478   C.2       1 RES1   0.0000
    11 C11    -18.3024   8.0016  49.9776   C.2       1 RES1   0.0000
    12 C12    -18.7305   9.1847  50.5685   C.2       1 RES1   0.0000
    13 C13    -17.9286  10.3347  50.5266   C.2       1 RES1   0.0000
    14 N14    -18.4238  11.5267  51.1057   N.am      1 RES1   0.0000
    15 C15    -17.8077  12.7341  51.1845   C.2       1 RES1   0.0000
    16 O16    -16.6897  12.9575  50.7246   O.2       1 RES1   0.0000
    17 C17    -18.6201  13.8379  51.7755   C.2       1 RES1   0.0000
    18 C18    -19.5190  13.5385  52.8041   C.2       1 RES1   0.0000
    19 C19    -20.2897  14.5303  53.3955   C.2       1 RES1   0.0000
    20 C20    -20.1301  15.8329  52.9582   C.2       1 RES1   0.0000
    21 C21    -19.2000  16.1684  51.9643   C.2       1 RES1   0.0000
    22 C22    -19.3172  17.5805  51.8365   C.2       1 RES1   0.0000
    23 N23    -20.2409  18.0588  52.6428   N.2       1 RES1   0.0000
    24 N24    -20.7516  16.9842  53.3125   N.pl3     1 RES1   0.0000
    25 C25    -21.8917  17.1512  54.1956   C.3       1 RES1   0.0000
    26 C26    -18.4638  15.1598  51.3477   C.2       1 RES1   0.0000
    27 C27    -16.6913  10.3094  49.8760   C.2       1 RES1   0.0000
    28 C28    -16.2599   9.1275  49.2791   C.2       1 RES1   0.0000
    29 N29    -15.1025   8.8409  48.5565   N.2       1 RES1   0.0000
@<TRIPOS>BOND
     1     2     1    1
     2     2     3    1
     3     3     4    1
     4     4     5    1
     5     5     6    1
     6     6     7    1
     7     7     8    1
     8     8     9    2
     9     9    10    1
    10    10    11    2
    11    11    12    1
    12    12    13    2
    13    13    14    1
    14    14    15   am
    15    15    16    2
    16    15    17    1
    17    17    18    2
    18    18    19    1
    19    19    20    2
    20    20    21    1
    21    21    22    1
    22    22    23    2
    23    23    24    1
    24    24    25    1
    25    21    26    2
    26    13    27    1
    27    27    28    2
    28    28    29    1
    29     6     2    1
    30    29     8    1
    31    28    10    1
    32    26    17    1
    33    24    20    1
@<TRIPOS>SUBSTRUCTURE
     1 RES1        1 GROUP             0 ****  ****    0  
@<TRIPOS>MOLECULE
ligand_91
    29    33     1     0     0
SMALL
USER_CHARGES
****
Generated from the CSD

@<TRIPOS>ATOM
     1 C1     -12.0649   9.2518  48.8878   C.3       1 RES1   0.0000
     2 C2     -12.2682   8.4155  47.6427   C.3       1 RES1   0.0000
     3 C3     -10.9660   8.1232  46.8990   C.3       1 RES1   0.0000
     4 C4     -10.5077   6.7900  47.4608   C.3       1 RES1   0.0000
     5 C5     -11.7911   6.0154  47.5569   C.3       1 RES1   0.0000
     6 N6     -12.8104   7.0354  48.0314   N.3       1 RES1   1.0000
     7 C7     -14.1625   6.7780  47.5125   C.3       1 RES1   0.0000
     8 C8     -15.2082   7.5649  48.2351   C.2       1 RES1   0.0000
     9 N9     -16.3546   7.0031  48.6802   N.2       1 RES1   0.0000
    10 C10    -17.0589   7.9900  49.3478   C.2       1 RES1   0.0000
    11 C11    -18.3024   8.0016  49.9776   C.2       1 RES1   0.0000
    12 C12    -18.7305   9.1847  50.5685   C.2       1 RES1   0.0000
    13 C13    -17.9286  10.3347  50.5266   C.2       1 RES1   0.0000
    14 N14    -18.4238  11.5267  51.1057   N.am      1 RES1   0.0000
    15 C15    -17.7987  12.7279  51.2049   C.2       1 RES1   0.0000
    16 O16    -16.6392  12.9220  50.8455   O.2       1 RES1   0.0000
    17 C17    -18.6451  13.8605  51.6829   C.2       1 RES1   0.0000
    18 C18    -20.0252  13.8119  51.4624   C.2       1 RES1   0.0000
    19 C19    -20.8582  14.8339  51.8970   C.2       1 RES1   0.0000
    20 C20    -20.2920  15.8964  52.5784   C.2       1 RES1   0.0000
    21 C21    -18.9189  15.9459  52.8574   C.2       1 RES1   0.0000
    22 C22    -18.7535  17.1534  53.5913   C.2       1 RES1   0.0000
    23 N23    -19.8960  17.7932  53.7236   N.2       1 RES1   0.0000
    24 N24    -20.8319  17.0322  53.0841   N.pl3     1 RES1   0.0000
    25 C25    -22.1893  17.5238  52.9309   C.3       1 RES1   0.0000
    26 C26    -18.0868  14.9371  52.3787   C.2       1 RES1   0.0000
    27 C27    -16.6913  10.3094  49.8760   C.2       1 RES1   0.0000
    28 C28    -16.2599   9.1275  49.2791   C.2       1 RES1   0.0000
    29 N29    -15.1025   8.8409  48.5565   N.2       1 RES1   0.0000
@<TRIPOS>BOND
     1     2     1    1
     2     2     3    1
     3     3     4    1
     4     4     5    1
     5     5     6    1
     6     6     7    1
     7     7     8    1
     8     8     9    2
     9     9    10    1
    10    10    11    2
    11    11    12    1
    12    12    13    2
    13    13    14    1
    14    14    15   am
    15    15    16    2
    16    15    17    1
    17    17    18    2
    18    18    19    1
    19    19    20    2
    20    20    21    1
    21    21    22    1
    22    22    23    2
    23    23    24    1
    24    24    25    1
    25    21    26    2
    26    13    27    1
    27    27    28    2
    28    28    29    1
    29     6     2    1
    30    29     8    1
    31    28    10    1
    32    26    17    1
    33    24    20    1
@<TRIPOS>SUBSTRUCTURE
     1 RES1        1 GROUP             0 ****  ****    0  
@<TRIPOS>MOLECULE
ligand_92
    29    33     1     0     0
SMALL
USER_CHARGES
****
Generated from the CSD

@<TRIPOS>ATOM
     1 C1     -12.0643   9.2563  48.8788   C.3       1 RES1   0.0000
     2 C2     -12.2683   8.4160  47.6366   C.3       1 RES1   0.0000
     3 C3     -10.9663   8.1213  46.8931   C.3       1 RES1   0.0000
     4 C4     -10.5077   6.7900  47.4589   C.3       1 RES1   0.0000
     5 C5     -11.7910   6.0157  47.5581   C.3       1 RES1   0.0000
     6 N6     -12.8101   7.0371  48.0298   N.3       1 RES1   1.0000
     7 C7     -14.1625   6.7780  47.5125   C.3       1 RES1   0.0000
     8 C8     -15.2082   7.5649  48.2351   C.2       1 RES1   0.0000
     9 N9     -16.3546   7.0031  48.6802   N.2       1 RES1   0.0000
    10 C10    -17.0589   7.9900  49.3478   C.2       1 RES1   0.0000
    11 C11    -18.3024   8.0016  49.9776   C.2       1 RES1   0.0000
    12 C12    -18.7305   9.1847  50.5685   C.2       1 RES1   0.0000
    13 C13    -17.9286  10.3347  50.5266   C.2       1 RES1   0.0000
    14 N14    -18.4238  11.5267  51.1057   N.am      1 RES1   0.0000
    15 C15    -19.6293  11.7282  51.6973   C.2       1 RES1   0.0000
    16 O16    -20.5021  10.8657  51.7715   O.2       1 RES1   0.0000
    17 C17    -19.8078  13.0490  52.3690   C.2       1 RES1   0.0000
    18 C18    -21.1023  13.5501  52.5397   C.2       1 RES1   0.0000
    19 C19    -21.3236  14.7680  53.1682   C.2       1 RES1   0.0000
    20 C20    -20.2301  15.4677  53.6459   C.2       1 RES1   0.0000
    21 C21    -18.9262  14.9648  53.5333   C.2       1 RES1   0.0000
    22 C22    -18.1158  15.9458  54.1697   C.2       1 RES1   0.0000
    23 N23    -18.8389  16.9575  54.6005   N.2       1 RES1   0.0000
    24 N24    -20.1297  16.6722  54.2595   N.pl3     1 RES1   0.0000
    25 C25    -21.1751  17.6555  54.4783   C.3       1 RES1   0.0000
    26 C26    -18.7119  13.7633  52.8625   C.2       1 RES1   0.0000
    27 C27    -16.6913  10.3094  49.8760   C.2       1 RES1   0.0000
    28 C28    -16.2599   9.1275  49.2791   C.2       1 RES1   0.0000
    29 N29    -15.1025   8.8409  48.5565   N.2       1 RES1   0.0000
@<TRIPOS>BOND
     1     2     1    1
     2     2     3    1
     3     3     4    1
     4     4     5    1
     5     5     6    1
     6     6     7    1
     7     7     8    1
     8     8     9    2
     9     9    10    1
    10    10    11    2
    11    11    12    1
    12    12    13    2
    13    13    14    1
    14    14    15   am
    15    15    16    2
    16    15    17    1
    17    17    18    2
    18    18    19    1
    19    19    20    2
    20    20    21    1
    21    21    22    1
    22    22    23    2
    23    23    24    1
    24    24    25    1
    25    21    26    2
    26    13    27    1
    27    27    28    2
    28    28    29    1
    29     6     2    1
    30    29     8    1
    31    28    10    1
    32    26    17    1
    33    24    20    1
@<TRIPOS>SUBSTRUCTURE
     1 RES1        1 GROUP             0 ****  ****    0  
@<TRIPOS>MOLECULE
ligand_93
    29    33     1     0     0
SMALL
USER_CHARGES
****
Generated from the CSD

@<TRIPOS>ATOM
     1 C1     -12.0645   9.2550  48.8814   C.3       1 RES1   0.0000
     2 C2     -12.2683   8.4159  47.6384   C.3       1 RES1   0.0000
     3 C3     -10.9663   8.1220  46.8948   C.3       1 RES1   0.0000
     4 C4     -10.5077   6.7901  47.4594   C.3       1 RES1   0.0000
     5 C5     -11.7910   6.0156  47.5577   C.3       1 RES1   0.0000
     6 N6     -12.8102   7.0366  48.0303   N.3       1 RES1   1.0000
     7 C7     -14.1625   6.7780  47.5125   C.3       1 RES1   0.0000
     8 C8     -15.2082   7.5649  48.2351   C.2       1 RES1   0.0000
     9 N9     -16.3546   7.0031  48.6802   N.2       1 RES1   0.0000
    10 C10    -17.0589   7.9900  49.3478   C.2       1 RES1   0.0000
    11 C11    -18.3024   8.0016  49.9776   C.2       1 RES1   0.0000
    12 C12    -18.7305   9.1847  50.5685   C.2       1 RES1   0.0000
    13 C13    -17.9286  10.3347  50.5266   C.2       1 RES1   0.0000
    14 N14    -18.4238  11.5267  51.1057   N.am      1 RES1   0.0000
    15 C15    -19.6217  11.7232  51.7140   C.2       1 RES1   0.0000
    16 O16    -20.4684  10.8419  51.8477   O.2       1 RES1   0.0000
    17 C17    -19.8231  13.0688  52.3274   C.2       1 RES1   0.0000
    18 C18    -20.5972  13.1731  53.4874   C.2       1 RES1   0.0000
    19 C19    -20.8057  14.3996  54.1036   C.2       1 RES1   0.0000
    20 C20    -20.2072  15.5194  53.5548   C.2       1 RES1   0.0000
    21 C21    -19.3852  15.4359  52.4221   C.2       1 RES1   0.0000
    22 C22    -18.9455  16.7719  52.2085   C.2       1 RES1   0.0000
    23 N23    -19.4648  17.5940  53.0954   N.2       1 RES1   0.0000
    24 N24    -20.2535  16.8281  53.9048   N.pl3     1 RES1   0.0000
    25 C25    -21.0811  17.4548  54.9197   C.3       1 RES1   0.0000
    26 C26    -19.2185  14.2078  51.7869   C.2       1 RES1   0.0000
    27 C27    -16.6913  10.3094  49.8760   C.2       1 RES1   0.0000
    28 C28    -16.2599   9.1275  49.2791   C.2       1 RES1   0.0000
    29 N29    -15.1025   8.8409  48.5565   N.2       1 RES1   0.0000
@<TRIPOS>BOND
     1     2     1    1
     2     2     3    1
     3     3     4    1
     4     4     5    1
     5     5     6    1
     6     6     7    1
     7     7     8    1
     8     8     9    2
     9     9    10    1
    10    10    11    2
    11    11    12    1
    12    12    13    2
    13    13    14    1
    14    14    15   am
    15    15    16    2
    16    15    17    1
    17    17    18    2
    18    18    19    1
    19    19    20    2
    20    20    21    1
    21    21    22    1
    22    22    23    2
    23    23    24    1
    24    24    25    1
    25    21    26    2
    26    13    27    1
    27    27    28    2
    28    28    29    1
    29     6     2    1
    30    29     8    1
    31    28    10    1
    32    26    17    1
    33    24    20    1
@<TRIPOS>SUBSTRUCTURE
     1 RES1        1 GROUP             0 ****  ****    0  
@<TRIPOS>MOLECULE
ligand_94
    29    33     1     0     0
SMALL
USER_CHARGES
****
Generated from the CSD

@<TRIPOS>ATOM
     1 C1     -12.0646   9.2543  48.8828   C.3       1 RES1   0.0000
     2 C2     -12.2683   8.4158  47.6393   C.3       1 RES1   0.0000
     3 C3     -10.9662   8.1222  46.8957   C.3       1 RES1   0.0000
     4 C4     -10.5077   6.7900  47.4597   C.3       1 RES1   0.0000
     5 C5     -11.7910   6.0155  47.5575   C.3       1 RES1   0.0000
     6 N6     -12.8102   7.0363  48.0305   N.3       1 RES1   1.0000
     7 C7     -14.1625   6.7780  47.5125   C.3       1 RES1   0.0000
     8 C8     -15.2082   7.5649  48.2351   C.2       1 RES1   0.0000
     9 N9     -16.3546   7.0031  48.6802   N.2       1 RES1   0.0000
    10 C10    -17.0589   7.9900  49.3478   C.2       1 RES1   0.0000
    11 C11    -18.3024   8.0016  49.9776   C.2       1 RES1   0.0000
    12 C12    -18.7305   9.1847  50.5685   C.2       1 RES1   0.0000
    13 C13    -17.9286  10.3347  50.5266   C.2       1 RES1   0.0000
    14 N14    -18.4238  11.5267  51.1057   N.am      1 RES1   0.0000
    15 C15    -19.6179  11.7208  51.7223   C.2       1 RES1   0.0000
    16 O16    -20.4523  10.8322  51.8820   O.2       1 RES1   0.0000
    17 C17    -19.8297  13.0759  52.3109   C.2       1 RES1   0.0000
    18 C18    -19.2853  14.1874  51.6597   C.2       1 RES1   0.0000
    19 C19    -19.4630  15.4704  52.1594   C.2       1 RES1   0.0000
    20 C20    -20.2153  15.6280  53.3095   C.2       1 RES1   0.0000
    21 C21    -20.8146  14.5366  53.9539   C.2       1 RES1   0.0000
    22 C22    -21.5152  15.1167  55.0478   C.2       1 RES1   0.0000
    23 N23    -21.3412  16.4206  55.0900   N.2       1 RES1   0.0000
    24 N24    -20.5277  16.7278  54.0375   N.pl3     1 RES1   0.0000
    25 C25    -20.0313  18.0820  53.8718   C.3       1 RES1   0.0000
    26 C26    -20.5935  13.2500  53.4689   C.2       1 RES1   0.0000
    27 C27    -16.6913  10.3094  49.8760   C.2       1 RES1   0.0000
    28 C28    -16.2599   9.1275  49.2791   C.2       1 RES1   0.0000
    29 N29    -15.1025   8.8409  48.5565   N.2       1 RES1   0.0000
@<TRIPOS>BOND
     1     2     1    1
     2     2     3    1
     3     3     4    1
     4     4     5    1
     5     5     6    1
     6     6     7    1
     7     7     8    1
     8     8     9    2
     9     9    10    1
    10    10    11    2
    11    11    12    1
    12    12    13    2
    13    13    14    1
    14    14    15   am
    15    15    16    2
    16    15    17    1
    17    17    18    2
    18    18    19    1
    19    19    20    2
    20    20    21    1
    21    21    22    1
    22    22    23    2
    23    23    24    1
    24    24    25    1
    25    21    26    2
    26    13    27    1
    27    27    28    2
    28    28    29    1
    29     6     2    1
    30    29     8    1
    31    28    10    1
    32    26    17    1
    33    24    20    1
@<TRIPOS>SUBSTRUCTURE
     1 RES1        1 GROUP             0 ****  ****    0  
@<TRIPOS>MOLECULE
ligand_95
    29    33     1     0     0
SMALL
USER_CHARGES
****
Generated from the CSD

@<TRIPOS>ATOM
     1 C1     -12.1900   9.4700  48.6410   C.3       1 RES1   0.0000
     2 C2     -12.4260   8.5850  47.4360   C.3       1 RES1   0.0000
     3 C3     -11.2122   8.3554  46.5415   C.3       1 RES1   0.0000
     4 C4     -11.2500   6.9368  46.0793   C.3       1 RES1   0.0000
     5 C5     -12.5323   6.3625  46.6305   C.3       1 RES1   0.0000
     6 N6     -12.8320   7.1889  47.8262   N.3       1 RES1   1.0000
     7 C7     -14.2284   7.0517  48.2674   C.3       1 RES1   0.0000
     8 C8     -14.5849   5.6373  48.5952   C.2       1 RES1   0.0000
     9 N9     -13.7269   4.8050  49.2269   N.2       1 RES1   0.0000
    10 C10    -14.3923   3.6074  49.4236   C.2       1 RES1   0.0000
    11 C11    -14.0045   2.3924  49.9862   C.2       1 RES1   0.0000
    12 C12    -14.9356   1.3614  50.0335   C.2       1 RES1   0.0000
    13 C13    -16.2297   1.5440  49.5242   C.2       1 RES1   0.0000
    14 N14    -17.1301   0.4533  49.5568   N.am      1 RES1   0.0000
    15 C15    -18.4818   0.4912  49.6790   C.2       1 RES1   0.0000
    16 O16    -19.1229   1.5317  49.8116   O.2       1 RES1   0.0000
    17 C17    -19.1821  -0.8184  49.5306   C.2       1 RES1   0.0000
    18 C18    -20.4349  -0.9859  50.1292   C.2       1 RES1   0.0000
    19 C19    -21.1329  -2.1801  50.0116   C.2       1 RES1   0.0000
    20 C20    -20.5689  -3.1986  49.2646   C.2       1 RES1   0.0000
    21 C21    -19.3381  -3.0400  48.6120   C.2       1 RES1   0.0000
    22 C22    -19.1373  -4.2761  47.9370   C.2       1 RES1   0.0000
    23 N23    -20.1228  -5.1158  48.1729   N.2       1 RES1   0.0000
    24 N24    -20.9868  -4.4612  49.0030   N.pl3     1 RES1   0.0000
    25 C25    -22.1286  -5.1608  49.5639   C.3       1 RES1   0.0000
    26 C26    -18.6265  -1.8538  48.7728   C.2       1 RES1   0.0000
    27 C27    -16.5962   2.7642  48.9484   C.2       1 RES1   0.0000
    28 C28    -15.6656   3.7988  48.8951   C.2       1 RES1   0.0000
    29 N29    -15.7601   5.0833  48.3613   N.2       1 RES1   0.0000
@<TRIPOS>BOND
     1     2     1    1
     2     2     3    1
     3     3     4    1
     4     4     5    1
     5     5     6    1
     6     6     7    1
     7     7     8    1
     8     8     9    2
     9     9    10    1
    10    10    11    2
    11    11    12    1
    12    12    13    2
    13    13    14    1
    14    14    15   am
    15    15    16    2
    16    15    17    1
    17    17    18    2
    18    18    19    1
    19    19    20    2
    20    20    21    1
    21    21    22    1
    22    22    23    2
    23    23    24    1
    24    24    25    1
    25    21    26    2
    26    13    27    1
    27    27    28    2
    28    28    29    1
    29     6     2    1
    30    29     8    1
    31    28    10    1
    32    26    17    1
    33    24    20    1
@<TRIPOS>SUBSTRUCTURE
     1 RES1        1 GROUP             0 ****  ****    0  
@<TRIPOS>MOLECULE
ligand_96
    29    33     1     0     0
SMALL
USER_CHARGES
****
Generated from the CSD

@<TRIPOS>ATOM
     1 C1     -12.1900   9.4700  48.6410   C.3       1 RES1   0.0000
     2 C2     -12.4260   8.5850  47.4360   C.3       1 RES1   0.0000
     3 C3     -11.2122   8.3554  46.5415   C.3       1 RES1   0.0000
     4 C4     -11.2500   6.9368  46.0793   C.3       1 RES1   0.0000
     5 C5     -12.5323   6.3625  46.6305   C.3       1 RES1   0.0000
     6 N6     -12.8320   7.1889  47.8262   N.3       1 RES1   1.0000
     7 C7     -14.2284   7.0517  48.2674   C.3       1 RES1   0.0000
     8 C8     -14.5849   5.6373  48.5952   C.2       1 RES1   0.0000
     9 N9     -13.7269   4.8050  49.2269   N.2       1 RES1   0.0000
    10 C10    -14.3923   3.6074  49.4236   C.2       1 RES1   0.0000
    11 C11    -14.0045   2.3924  49.9862   C.2       1 RES1   0.0000
    12 C12    -14.9356   1.3614  50.0335   C.2       1 RES1   0.0000
    13 C13    -16.2297   1.5440  49.5242   C.2       1 RES1   0.0000
    14 N14    -17.1301   0.4533  49.5568   N.am      1 RES1   0.0000
    15 C15    -18.4814   0.4910  49.6835   C.2       1 RES1   0.0000
    16 O16    -19.1248   1.5330  49.7906   O.2       1 RES1   0.0000
    17 C17    -19.1787  -0.8240  49.5733   C.2       1 RES1   0.0000
    18 C18    -20.4552  -0.8657  49.0035   C.2       1 RES1   0.0000
    19 C19    -21.1419  -2.0645  48.8672   C.2       1 RES1   0.0000
    20 C20    -20.5216  -3.2270  49.2884   C.2       1 RES1   0.0000
    21 C21    -19.2228  -3.2203  49.8163   C.2       1 RES1   0.0000
    22 C22    -18.9456  -4.5900  50.0831   C.2       1 RES1   0.0000
    23 N23    -19.9737  -5.3539  49.7805   N.2       1 RES1   0.0000
    24 N24    -20.9445  -4.5146  49.3146   N.pl3     1 RES1   0.0000
    25 C25    -22.2679  -5.0288  49.0119   C.3       1 RES1   0.0000
    26 C26    -18.5607  -2.0073  49.9887   C.2       1 RES1   0.0000
    27 C27    -16.5962   2.7642  48.9484   C.2       1 RES1   0.0000
    28 C28    -15.6656   3.7988  48.8951   C.2       1 RES1   0.0000
    29 N29    -15.7601   5.0833  48.3613   N.2       1 RES1   0.0000
@<TRIPOS>BOND
     1     2     1    1
     2     2     3    1
     3     3     4    1
     4     4     5    1
     5     5     6    1
     6     6     7    1
     7     7     8    1
     8     8     9    2
     9     9    10    1
    10    10    11    2
    11    11    12    1
    12    12    13    2
    13    13    14    1
    14    14    15   am
    15    15    16    2
    16    15    17    1
    17    17    18    2
    18    18    19    1
    19    19    20    2
    20    20    21    1
    21    21    22    1
    22    22    23    2
    23    23    24    1
    24    24    25    1
    25    21    26    2
    26    13    27    1
    27    27    28    2
    28    28    29    1
    29     6     2    1
    30    29     8    1
    31    28    10    1
    32    26    17    1
    33    24    20    1
@<TRIPOS>SUBSTRUCTURE
     1 RES1        1 GROUP             0 ****  ****    0  
@<TRIPOS>MOLECULE
ligand_97
    29    33     1     0     0
SMALL
USER_CHARGES
****
Generated from the CSD

@<TRIPOS>ATOM
     1 C1     -12.1900   9.4700  48.6410   C.3       1 RES1   0.0000
     2 C2     -12.4260   8.5850  47.4360   C.3       1 RES1   0.0000
     3 C3     -11.2122   8.3554  46.5415   C.3       1 RES1   0.0000
     4 C4     -11.2500   6.9368  46.0793   C.3       1 RES1   0.0000
     5 C5     -12.5323   6.3625  46.6305   C.3       1 RES1   0.0000
     6 N6     -12.8320   7.1889  47.8262   N.3       1 RES1   1.0000
     7 C7     -14.2284   7.0517  48.2674   C.3       1 RES1   0.0000
     8 C8     -14.5849   5.6373  48.5952   C.2       1 RES1   0.0000
     9 N9     -13.7269   4.8050  49.2269   N.2       1 RES1   0.0000
    10 C10    -14.3923   3.6074  49.4236   C.2       1 RES1   0.0000
    11 C11    -14.0045   2.3924  49.9862   C.2       1 RES1   0.0000
    12 C12    -14.9356   1.3614  50.0335   C.2       1 RES1   0.0000
    13 C13    -16.2297   1.5440  49.5242   C.2       1 RES1   0.0000
    14 N14    -17.1301   0.4533  49.5568   N.am      1 RES1   0.0000
    15 C15    -18.4813   0.4909  49.6846   C.2       1 RES1   0.0000
    16 O16    -19.1255   1.5333  49.7826   O.2       1 RES1   0.0000
    17 C17    -19.1775  -0.8256  49.5873   C.2       1 RES1   0.0000
    18 C18    -18.5432  -1.9640  50.0947   C.2       1 RES1   0.0000
    19 C19    -19.1524  -3.2102  50.0394   C.2       1 RES1   0.0000
    20 C20    -20.4187  -3.2973  49.4896   C.2       1 RES1   0.0000
    21 C21    -21.0982  -2.1645  49.0197   C.2       1 RES1   0.0000
    22 C22    -22.3550  -2.6663  48.5809   C.2       1 RES1   0.0000
    23 N23    -22.4296  -3.9711  48.7356   N.2       1 RES1   0.0000
    24 N24    -21.2350  -4.3573  49.2720   N.pl3     1 RES1   0.0000
    25 C25    -20.9381  -5.7673  49.4490   C.3       1 RES1   0.0000
    26 C26    -20.4602  -0.9267  49.0401   C.2       1 RES1   0.0000
    27 C27    -16.5962   2.7642  48.9484   C.2       1 RES1   0.0000
    28 C28    -15.6656   3.7988  48.8951   C.2       1 RES1   0.0000
    29 N29    -15.7601   5.0833  48.3613   N.2       1 RES1   0.0000
@<TRIPOS>BOND
     1     2     1    1
     2     2     3    1
     3     3     4    1
     4     4     5    1
     5     5     6    1
     6     6     7    1
     7     7     8    1
     8     8     9    2
     9     9    10    1
    10    10    11    2
    11    11    12    1
    12    12    13    2
    13    13    14    1
    14    14    15   am
    15    15    16    2
    16    15    17    1
    17    17    18    2
    18    18    19    1
    19    19    20    2
    20    20    21    1
    21    21    22    1
    22    22    23    2
    23    23    24    1
    24    24    25    1
    25    21    26    2
    26    13    27    1
    27    27    28    2
    28    28    29    1
    29     6     2    1
    30    29     8    1
    31    28    10    1
    32    26    17    1
    33    24    20    1
@<TRIPOS>SUBSTRUCTURE
     1 RES1        1 GROUP             0 ****  ****    0  
@<TRIPOS>MOLECULE
ligand_98
    29    33     1     0     0
SMALL
USER_CHARGES
****
Generated from the CSD

@<TRIPOS>ATOM
     1 C1     -12.1900   9.4700  48.6410   C.3       1 RES1   0.0000
     2 C2     -12.4260   8.5850  47.4360   C.3       1 RES1   0.0000
     3 C3     -11.2122   8.3554  46.5415   C.3       1 RES1   0.0000
     4 C4     -11.2500   6.9368  46.0793   C.3       1 RES1   0.0000
     5 C5     -12.5323   6.3625  46.6305   C.3       1 RES1   0.0000
     6 N6     -12.8320   7.1889  47.8262   N.3       1 RES1   1.0000
     7 C7     -14.2284   7.0517  48.2674   C.3       1 RES1   0.0000
     8 C8     -14.5849   5.6373  48.5952   C.2       1 RES1   0.0000
     9 N9     -13.7269   4.8050  49.2269   N.2       1 RES1   0.0000
    10 C10    -14.3923   3.6074  49.4236   C.2       1 RES1   0.0000
    11 C11    -14.0045   2.3924  49.9862   C.2       1 RES1   0.0000
    12 C12    -14.9356   1.3614  50.0335   C.2       1 RES1   0.0000
    13 C13    -16.2297   1.5440  49.5242   C.2       1 RES1   0.0000
    14 N14    -17.1301   0.4533  49.5568   N.am      1 RES1   0.0000
    15 C15    -18.4819   0.4912  49.6783   C.2       1 RES1   0.0000
    16 O16    -19.1211   1.5299  49.8323   O.2       1 RES1   0.0000
    17 C17    -19.1845  -0.8136  49.5012   C.2       1 RES1   0.0000
    18 C18    -18.5888  -1.7989  48.7074   C.2       1 RES1   0.0000
    19 C19    -19.1953  -3.0336  48.5200   C.2       1 RES1   0.0000
    20 C20    -20.3976  -3.2775  49.1591   C.2       1 RES1   0.0000
    21 C21    -20.9915  -2.3264  50.0008   C.2       1 RES1   0.0000
    22 C22    -22.1672  -2.9681  50.4804   C.2       1 RES1   0.0000
    23 N23    -22.2987  -4.1723  49.9661   N.2       1 RES1   0.0000
    24 N24    -21.2255  -4.3505  49.1412   N.pl3     1 RES1   0.0000
    25 C25    -21.1345  -5.5380  48.3109   C.3       1 RES1   0.0000
    26 C26    -20.3967  -1.0757  50.1468   C.2       1 RES1   0.0000
    27 C27    -16.5962   2.7642  48.9484   C.2       1 RES1   0.0000
    28 C28    -15.6656   3.7988  48.8951   C.2       1 RES1   0.0000
    29 N29    -15.7601   5.0833  48.3613   N.2       1 RES1   0.0000
@<TRIPOS>BOND
     1     2     1    1
     2     2     3    1
     3     3     4    1
     4     4     5    1
     5     5     6    1
     6     6     7    1
     7     7     8    1
     8     8     9    2
     9     9    10    1
    10    10    11    2
    11    11    12    1
    12    12    13    2
    13    13    14    1
    14    14    15   am
    15    15    16    2
    16    15    17    1
    17    17    18    2
    18    18    19    1
    19    19    20    2
    20    20    21    1
    21    21    22    1
    22    22    23    2
    23    23    24    1
    24    24    25    1
    25    21    26    2
    26    13    27    1
    27    27    28    2
    28    28    29    1
    29     6     2    1
    30    29     8    1
    31    28    10    1
    32    26    17    1
    33    24    20    1
@<TRIPOS>SUBSTRUCTURE
     1 RES1        1 GROUP             0 ****  ****    0  
@<TRIPOS>MOLECULE
ligand_99
    29    33     1     0     0
SMALL
USER_CHARGES
****
Generated from the CSD

@<TRIPOS>ATOM
     1 C1     -12.1900   9.4700  48.6410   C.3       1 RES1   0.0000
     2 C2     -12.4260   8.5850  47.4360   C.3       1 RES1   0.0000
     3 C3     -11.2122   8.3554  46.5415   C.3       1 RES1   0.0000
     4 C4     -11.2500   6.9368  46.0793   C.3       1 RES1   0.0000
     5 C5     -12.5323   6.3625  46.6305   C.3       1 RES1   0.0000
     6 N6     -12.8320   7.1889  47.8262   N.3       1 RES1   1.0000
     7 C7     -14.2284   7.0517  48.2674   C.3       1 RES1   0.0000
     8 C8     -14.5849   5.6373  48.5952   C.2       1 RES1   0.0000
     9 N9     -13.7269   4.8050  49.2269   N.2       1 RES1   0.0000
    10 C10    -14.3923   3.6074  49.4236   C.2       1 RES1   0.0000
    11 C11    -14.0045   2.3924  49.9862   C.2       1 RES1   0.0000
    12 C12    -14.9356   1.3614  50.0335   C.2       1 RES1   0.0000
    13 C13    -16.2297   1.5440  49.5242   C.2       1 RES1   0.0000
    14 N14    -17.1301   0.4533  49.5568   N.am      1 RES1   0.0000
    15 C15    -18.1184   0.1612  48.6728   C.2       1 RES1   0.0000
    16 O16    -18.3714   0.8483  47.6853   O.2       1 RES1   0.0000
    17 C17    -18.8319  -1.1293  48.9028   C.2       1 RES1   0.0000
    18 C18    -20.1372  -1.2743  48.4220   C.2       1 RES1   0.0000
    19 C19    -20.8404  -2.4580  48.5995   C.2       1 RES1   0.0000
    20 C20    -20.2087  -3.5055  49.2454   C.2       1 RES1   0.0000
    21 C21    -18.8837  -3.4047  49.6925   C.2       1 RES1   0.0000
    22 C22    -18.6045  -4.6822  50.2530   C.2       1 RES1   0.0000
    23 N23    -19.6537  -5.4738  50.1858   N.2       1 RES1   0.0000
    24 N24    -20.6406  -4.7438  49.5881   N.pl3     1 RES1   0.0000
    25 C25    -21.9827  -5.2864  49.4779   C.3       1 RES1   0.0000
    26 C26    -18.2030  -2.1984  49.5481   C.2       1 RES1   0.0000
    27 C27    -16.5962   2.7642  48.9484   C.2       1 RES1   0.0000
    28 C28    -15.6656   3.7988  48.8951   C.2       1 RES1   0.0000
    29 N29    -15.7601   5.0833  48.3613   N.2       1 RES1   0.0000
@<TRIPOS>BOND
     1     2     1    1
     2     2     3    1
     3     3     4    1
     4     4     5    1
     5     5     6    1
     6     6     7    1
     7     7     8    1
     8     8     9    2
     9     9    10    1
    10    10    11    2
    11    11    12    1
    12    12    13    2
    13    13    14    1
    14    14    15   am
    15    15    16    2
    16    15    17    1
    17    17    18    2
    18    18    19    1
    19    19    20    2
    20    20    21    1
    21    21    22    1
    22    22    23    2
    23    23    24    1
    24    24    25    1
    25    21    26    2
    26    13    27    1
    27    27    28    2
    28    28    29    1
    29     6     2    1
    30    29     8    1
    31    28    10    1
    32    26    17    1
    33    24    20    1
@<TRIPOS>SUBSTRUCTURE
     1 RES1        1 GROUP             0 ****  ****    0  
