@<TRIPOS>MOLECULE
native
    27    29     1     0     0
SMALL
USER_CHARGES
****
Generated from the CSD

@<TRIPOS>ATOM
     1 C1      28.0480  42.2270   1.3240   C.3       1 RES1   0.0000
     2 C2      27.3070  42.3390   2.6920   C.3       1 RES1   0.0000
     3 C3      28.3100  43.0110   3.6710   C.3       1 RES1   0.0000
     4 N4      27.7280  43.4530   4.9290   N.3       1 RES1   1.0000
     5 C5      26.9760  40.8890   3.2120   C.3       1 RES1   0.0000
     6 C6      25.7820  40.1960   2.5060   C.3       1 RES1   0.0000
     7 N7      24.6400  41.1250   2.4930   N.pl3     1 RES1   0.0000
     8 C8      23.5460  40.9540   3.3440   C.2       1 RES1   0.0000
     9 N9      23.6400  39.9750   4.2480   N.2       1 RES1   0.0000
    10 C10     22.6610  39.8350   5.1600   C.2       1 RES1   0.0000
    11 C11     21.5950  40.7400   5.2130   C.2       1 RES1   0.0000
    12 S12     20.3590  40.6980   6.4790   S.3       1 RES1   0.0000
    13 C13     18.7770  40.5580   5.6760   C.2       1 RES1   0.0000
    14 C14     18.7180  40.1150   4.3290   C.2       1 RES1   0.0000
    15 C15     17.4870  40.0610   3.6450   C.2       1 RES1   0.0000
    16 C16     16.3280  40.4060   4.3450   C.2       1 RES1   0.0000
    17 N17     16.3520  40.8120   5.6340   N.2       1 RES1   0.0000
    18 C18     17.5380  40.8840   6.3090   C.2       1 RES1   0.0000
    19 C19     17.4230  41.2970   7.7790   C.3       1 RES1   0.0000
    20 F20     16.1920  41.0400   8.1840   F         1 RES1   0.0000
    21 F21     18.2450  40.5670   8.5390   F         1 RES1   0.0000
    22 F22     17.6400  42.6070   7.9990   F         1 RES1   0.0000
    23 C23     21.6200  41.7640   4.2290   C.2       1 RES1   0.0000
    24 O24     20.5890  42.6170   4.1540   O.2       1 RES1   0.0000
    25 N25     22.5690  41.8570   3.2950   N.am      1 RES1   0.0000
    26 C26     24.8730  42.3940   1.7610   C.3       1 RES1   0.0000
    27 C27     25.9920  43.1660   2.5030   C.3       1 RES1   0.0000
@<TRIPOS>BOND
     1     1     2    1
     2     2     3    1
     3     3     4    1
     4     2     5    1
     5     5     6    1
     6     6     7    1
     7     7     8    1
     8     8     9    2
     9     9    10    1
    10    10    11    2
    11    11    12    1
    12    12    13    1
    13    13    14    2
    14    14    15    1
    15    15    16    2
    16    16    17    1
    17    17    18    2
    18    18    19    1
    19    19    20    1
    20    19    21    1
    21    19    22    1
    22    11    23    1
    23    23    24    2
    24    23    25   am
    25     7    26    1
    26    26    27    1
    27    27     2    1
    28    25     8    1
    29    18    13    1
@<TRIPOS>SUBSTRUCTURE
     1 RES1        1 GROUP             0 ****  ****    0  
@<TRIPOS>MOLECULE
ligand_0
    27    29     1     0     0
SMALL
USER_CHARGES
****
Generated from the CSD

@<TRIPOS>ATOM
     1 C1      28.1489  41.8382   1.4791   C.3       1 RES1   0.0000
     2 C2      27.3085  42.3311   2.6972   C.3       1 RES1   0.0000
     3 C3      28.2998  43.0545   3.6511   C.3       1 RES1   0.0000
     4 N4      27.6965  43.5918   4.8611   N.3       1 RES1   1.0000
     5 C5      26.6917  41.1194   3.3700   C.3       1 RES1   0.0000
     6 C6      25.6029  40.5000   2.5270   C.3       1 RES1   0.0000
     7 N7      24.5785  41.4883   2.1905   N.pl3     1 RES1   0.0000
     8 C8      23.2849  41.0514   1.8974   C.2       1 RES1   0.0000
     9 N9      22.3684  41.9996   1.6838   N.2       1 RES1   0.0000
    10 C10     21.1333  41.6351   1.2946   C.2       1 RES1   0.0000
    11 C11     20.8264  40.2928   1.0455   C.2       1 RES1   0.0000
    12 S12     19.2687  39.7674   0.3898   S.3       1 RES1   0.0000
    13 C13     18.2433  41.2128   0.2272   C.2       1 RES1   0.0000
    14 C14     18.0480  41.7857  -1.0565   C.2       1 RES1   0.0000
    15 C15     17.2990  42.9699  -1.2070   C.2       1 RES1   0.0000
    16 C16     16.7158  43.5306  -0.0678   C.2       1 RES1   0.0000
    17 N17     16.8682  42.9956   1.1641   N.2       1 RES1   0.0000
    18 C18     17.6027  41.8554   1.3312   C.2       1 RES1   0.0000
    19 C19     17.6468  41.3170   2.7640   C.3       1 RES1   0.0000
    20 F20     17.2185  42.2682   3.5748   F         1 RES1   0.0000
    21 F21     16.8147  40.2805   2.9034   F         1 RES1   0.0000
    22 F22     18.8788  40.9735   3.1829   F         1 RES1   0.0000
    23 C23     21.8894  39.3770   1.2666   C.2       1 RES1   0.0000
    24 O24     21.6520  38.0642   1.1383   O.2       1 RES1   0.0000
    25 N25     23.0937  39.7477   1.7068   N.am      1 RES1   0.0000
    26 C26     25.1345  42.6274   1.4554   C.3       1 RES1   0.0000
    27 C27     26.2359  43.3003   2.2716   C.3       1 RES1   0.0000
@<TRIPOS>BOND
     1     1     2    1
     2     2     3    1
     3     3     4    1
     4     2     5    1
     5     5     6    1
     6     6     7    1
     7     7     8    1
     8     8     9    2
     9     9    10    1
    10    10    11    2
    11    11    12    1
    12    12    13    1
    13    13    14    2
    14    14    15    1
    15    15    16    2
    16    16    17    1
    17    17    18    2
    18    18    19    1
    19    19    20    1
    20    19    21    1
    21    19    22    1
    22    11    23    1
    23    23    24    2
    24    23    25   am
    25     7    26    1
    26    26    27    1
    27    27     2    1
    28    25     8    1
    29    18    13    1
@<TRIPOS>SUBSTRUCTURE
     1 RES1        1 GROUP             0 ****  ****    0  
@<TRIPOS>MOLECULE
ligand_1
    27    29     1     0     0
SMALL
USER_CHARGES
****
Generated from the CSD

@<TRIPOS>ATOM
     1 C1      26.6431  41.1695   3.4808   C.3       1 RES1   0.0000
     2 C2      27.3007  42.3456   2.6952   C.3       1 RES1   0.0000
     3 C3      28.3463  42.9833   3.6524   C.3       1 RES1   0.0000
     4 N4      27.7948  43.5084   4.8921   N.3       1 RES1   1.0000
     5 C5      26.2147  43.3413   2.3341   C.3       1 RES1   0.0000
     6 C6      25.2834  42.8005   1.2758   C.3       1 RES1   0.0000
     7 N7      26.0291  42.3872   0.0873   N.pl3     1 RES1   0.0000
     8 C8      25.3778  42.3640  -1.1479   C.2       1 RES1   0.0000
     9 N9      26.1274  42.0655  -2.2126   N.2       1 RES1   0.0000
    10 C10     25.5307  41.9260  -3.4102   C.2       1 RES1   0.0000
    11 C11     24.1399  42.0188  -3.5340   C.2       1 RES1   0.0000
    12 S12     23.2852  41.6977  -5.0501   S.3       1 RES1   0.0000
    13 C13     24.5124  41.3532  -6.2921   C.2       1 RES1   0.0000
    14 C14     24.7373  40.0107  -6.6935   C.2       1 RES1   0.0000
    15 C15     25.7501  39.7000  -7.6229   C.2       1 RES1   0.0000
    16 C16     26.4869  40.7527  -8.1718   C.2       1 RES1   0.0000
    17 N17     26.2809  42.0423  -7.8233   N.2       1 RES1   0.0000
    18 C18     25.3128  42.3611  -6.9131   C.2       1 RES1   0.0000
    19 C19     25.1375  43.8596  -6.6514   C.3       1 RES1   0.0000
    20 F20     26.1926  44.4889  -7.1375   F         1 RES1   0.0000
    21 F21     24.0684  44.3294  -7.3015   F         1 RES1   0.0000
    22 F22     25.0578  44.1828  -5.3473   F         1 RES1   0.0000
    23 C23     23.4416  42.2988  -2.3293   C.2       1 RES1   0.0000
    24 O24     22.1165  42.4932  -2.3776   O.2       1 RES1   0.0000
    25 N25     24.0526  42.4903  -1.1581   N.am      1 RES1   0.0000
    26 C26     27.0229  41.3549   0.3935   C.3       1 RES1   0.0000
    27 C27     28.0010  41.8566   1.4536   C.3       1 RES1   0.0000
@<TRIPOS>BOND
     1     1     2    1
     2     2     3    1
     3     3     4    1
     4     2     5    1
     5     5     6    1
     6     6     7    1
     7     7     8    1
     8     8     9    2
     9     9    10    1
    10    10    11    2
    11    11    12    1
    12    12    13    1
    13    13    14    2
    14    14    15    1
    15    15    16    2
    16    16    17    1
    17    17    18    2
    18    18    19    1
    19    19    20    1
    20    19    21    1
    21    19    22    1
    22    11    23    1
    23    23    24    2
    24    23    25   am
    25     7    26    1
    26    26    27    1
    27    27     2    1
    28    25     8    1
    29    18    13    1
@<TRIPOS>SUBSTRUCTURE
     1 RES1        1 GROUP             0 ****  ****    0  
@<TRIPOS>MOLECULE
ligand_2
    27    29     1     0     0
SMALL
USER_CHARGES
****
Generated from the CSD

@<TRIPOS>ATOM
     1 C1      26.2825  43.4432   2.2896   C.3       1 RES1   0.0000
     2 C2      27.3134  42.3414   2.6851   C.3       1 RES1   0.0000
     3 C3      28.2834  42.9945   3.7091   C.3       1 RES1   0.0000
     4 N4      27.6468  43.4865   4.9212   N.3       1 RES1   1.0000
     5 C5      28.0529  41.9114   1.4324   C.3       1 RES1   0.0000
     6 C6      27.1666  41.1248   0.4967   C.3       1 RES1   0.0000
     7 N7      26.5816  39.9712   1.1796   N.pl3     1 RES1   0.0000
     8 C8      26.1875  38.8643   0.4249   C.2       1 RES1   0.0000
     9 N9      25.7427  37.8048   1.1061   N.2       1 RES1   0.0000
    10 C10     25.2522  36.7528   0.4261   C.2       1 RES1   0.0000
    11 C11     25.1393  36.7892  -0.9682   C.2       1 RES1   0.0000
    12 S12     24.3667  35.5017  -1.9051   S.3       1 RES1   0.0000
    13 C13     23.8953  34.2203  -0.7637   C.2       1 RES1   0.0000
    14 C14     22.5348  34.0983  -0.3786   C.2       1 RES1   0.0000
    15 C15     22.1429  33.1389   0.5763   C.2       1 RES1   0.0000
    16 C16     23.1203  32.2832   1.0909   C.2       1 RES1   0.0000
    17 N17     24.4197  32.3632   0.7274   N.2       1 RES1   0.0000
    18 C18     24.8205  33.2966  -0.1867   C.2       1 RES1   0.0000
    19 C19     26.3047  33.2428  -0.5597   C.3       1 RES1   0.0000
    20 F20     26.9283  32.5004   0.3378   F         1 RES1   0.0000
    21 F21     26.4714  32.6466  -1.7441   F         1 RES1   0.0000
    22 F22     26.9130  34.4434  -0.5628   F         1 RES1   0.0000
    23 C23     25.6056  37.9817  -1.5829   C.2       1 RES1   0.0000
    24 O24     25.6165  38.0605  -2.9208   O.2       1 RES1   0.0000
    25 N25     26.1417  38.9950  -0.8992   N.am      1 RES1   0.0000
    26 C26     25.7824  40.3679   2.3419   C.3       1 RES1   0.0000
    27 C27     26.6371  41.1590   3.3298   C.3       1 RES1   0.0000
@<TRIPOS>BOND
     1     1     2    1
     2     2     3    1
     3     3     4    1
     4     2     5    1
     5     5     6    1
     6     6     7    1
     7     7     8    1
     8     8     9    2
     9     9    10    1
    10    10    11    2
    11    11    12    1
    12    12    13    1
    13    13    14    2
    14    14    15    1
    15    15    16    2
    16    16    17    1
    17    17    18    2
    18    18    19    1
    19    19    20    1
    20    19    21    1
    21    19    22    1
    22    11    23    1
    23    23    24    2
    24    23    25   am
    25     7    26    1
    26    26    27    1
    27    27     2    1
    28    25     8    1
    29    18    13    1
@<TRIPOS>SUBSTRUCTURE
     1 RES1        1 GROUP             0 ****  ****    0  
@<TRIPOS>MOLECULE
ligand_3
    27    29     1     0     0
SMALL
USER_CHARGES
****
Generated from the CSD

@<TRIPOS>ATOM
     1 C1      28.1491  41.8373   1.4795   C.3       1 RES1   0.0000
     2 C2      27.3085  42.3310   2.6973   C.3       1 RES1   0.0000
     3 C3      28.2997  43.0548   3.6510   C.3       1 RES1   0.0000
     4 N4      27.6963  43.5927   4.8606   N.3       1 RES1   1.0000
     5 C5      26.6914  41.1198   3.3706   C.3       1 RES1   0.0000
     6 C6      25.6027  40.5001   2.5278   C.3       1 RES1   0.0000
     7 N7      24.5785  41.4883   2.1905   N.pl3     1 RES1   0.0000
     8 C8      23.2849  41.0514   1.8974   C.2       1 RES1   0.0000
     9 N9      22.3684  41.9996   1.6838   N.2       1 RES1   0.0000
    10 C10     21.1333  41.6351   1.2946   C.2       1 RES1   0.0000
    11 C11     20.8264  40.2928   1.0455   C.2       1 RES1   0.0000
    12 S12     19.2687  39.7674   0.3898   S.3       1 RES1   0.0000
    13 C13     18.2527  41.2164   0.2018   C.2       1 RES1   0.0000
    14 C14     17.2349  41.4801   1.1550   C.2       1 RES1   0.0000
    15 C15     16.3696  42.5808   0.9944   C.2       1 RES1   0.0000
    16 C16     16.5757  43.4278  -0.0975   C.2       1 RES1   0.0000
    17 N17     17.5496  43.2125  -1.0098   N.2       1 RES1   0.0000
    18 C18     18.3892  42.1424  -0.8780   C.2       1 RES1   0.0000
    19 C19     19.4874  42.0457  -1.9406   C.3       1 RES1   0.0000
    20 F20     19.1640  42.8452  -2.9414   F         1 RES1   0.0000
    21 F21     20.6535  42.4809  -1.4537   F         1 RES1   0.0000
    22 F22     19.6405  40.8135  -2.4602   F         1 RES1   0.0000
    23 C23     21.8894  39.3770   1.2666   C.2       1 RES1   0.0000
    24 O24     21.6520  38.0642   1.1383   O.2       1 RES1   0.0000
    25 N25     23.0937  39.7477   1.7068   N.am      1 RES1   0.0000
    26 C26     25.1347  42.6269   1.4548   C.3       1 RES1   0.0000
    27 C27     26.2361  43.3001   2.2709   C.3       1 RES1   0.0000
@<TRIPOS>BOND
     1     1     2    1
     2     2     3    1
     3     3     4    1
     4     2     5    1
     5     5     6    1
     6     6     7    1
     7     7     8    1
     8     8     9    2
     9     9    10    1
    10    10    11    2
    11    11    12    1
    12    12    13    1
    13    13    14    2
    14    14    15    1
    15    15    16    2
    16    16    17    1
    17    17    18    2
    18    18    19    1
    19    19    20    1
    20    19    21    1
    21    19    22    1
    22    11    23    1
    23    23    24    2
    24    23    25   am
    25     7    26    1
    26    26    27    1
    27    27     2    1
    28    25     8    1
    29    18    13    1
@<TRIPOS>SUBSTRUCTURE
     1 RES1        1 GROUP             0 ****  ****    0  
@<TRIPOS>MOLECULE
ligand_4
    27    29     1     0     0
SMALL
USER_CHARGES
****
Generated from the CSD

@<TRIPOS>ATOM
     1 C1      26.6445  41.1682   3.4801   C.3       1 RES1   0.0000
     2 C2      27.3008  42.3455   2.6951   C.3       1 RES1   0.0000
     3 C3      28.3457  42.9838   3.6527   C.3       1 RES1   0.0000
     4 N4      27.7937  43.5075   4.8927   N.3       1 RES1   1.0000
     5 C5      26.2138  43.3403   2.3346   C.3       1 RES1   0.0000
     6 C6      25.2830  42.7990   1.2760   C.3       1 RES1   0.0000
     7 N7      26.0291  42.3872   0.0873   N.pl3     1 RES1   0.0000
     8 C8      25.3778  42.3640  -1.1479   C.2       1 RES1   0.0000
     9 N9      26.1274  42.0655  -2.2126   N.2       1 RES1   0.0000
    10 C10     25.5307  41.9260  -3.4102   C.2       1 RES1   0.0000
    11 C11     24.1399  42.0188  -3.5340   C.2       1 RES1   0.0000
    12 S12     23.2852  41.6977  -5.0501   S.3       1 RES1   0.0000
    13 C13     24.5111  41.3270  -6.2858   C.2       1 RES1   0.0000
    14 C14     24.8624  42.3204  -7.2365   C.2       1 RES1   0.0000
    15 C15     25.7778  42.0334  -8.2689   C.2       1 RES1   0.0000
    16 C16     26.3635  40.7651  -8.2971   C.2       1 RES1   0.0000
    17 N17     26.0630  39.8063  -7.3931   N.2       1 RES1   0.0000
    18 C18     25.1672  40.0620  -6.3933   C.2       1 RES1   0.0000
    19 C19     24.9612  38.9159  -5.3990   C.3       1 RES1   0.0000
    20 F20     25.4564  37.8135  -5.9326   F         1 RES1   0.0000
    21 F21     25.6406  39.1434  -4.2708   F         1 RES1   0.0000
    22 F22     23.6704  38.6642  -5.1122   F         1 RES1   0.0000
    23 C23     23.4416  42.2988  -2.3293   C.2       1 RES1   0.0000
    24 O24     22.1165  42.4932  -2.3776   O.2       1 RES1   0.0000
    25 N25     24.0526  42.4903  -1.1581   N.am      1 RES1   0.0000
    26 C26     27.0240  41.3558   0.3929   C.3       1 RES1   0.0000
    27 C27     28.0016  41.8579   1.4533   C.3       1 RES1   0.0000
@<TRIPOS>BOND
     1     1     2    1
     2     2     3    1
     3     3     4    1
     4     2     5    1
     5     5     6    1
     6     6     7    1
     7     7     8    1
     8     8     9    2
     9     9    10    1
    10    10    11    2
    11    11    12    1
    12    12    13    1
    13    13    14    2
    14    14    15    1
    15    15    16    2
    16    16    17    1
    17    17    18    2
    18    18    19    1
    19    19    20    1
    20    19    21    1
    21    19    22    1
    22    11    23    1
    23    23    24    2
    24    23    25   am
    25     7    26    1
    26    26    27    1
    27    27     2    1
    28    25     8    1
    29    18    13    1
@<TRIPOS>SUBSTRUCTURE
     1 RES1        1 GROUP             0 ****  ****    0  
@<TRIPOS>MOLECULE
ligand_5
    27    29     1     0     0
SMALL
USER_CHARGES
****
Generated from the CSD

@<TRIPOS>ATOM
     1 C1      26.2813  43.4426   2.2910   C.3       1 RES1   0.0000
     2 C2      27.3133  42.3414   2.6852   C.3       1 RES1   0.0000
     3 C3      28.2839  42.9947   3.7085   C.3       1 RES1   0.0000
     4 N4      27.6480  43.4860   4.9213   N.3       1 RES1   1.0000
     5 C5      28.0519  41.9122   1.4317   C.3       1 RES1   0.0000
     6 C6      27.1652  41.1254   0.4966   C.3       1 RES1   0.0000
     7 N7      26.5816  39.9712   1.1796   N.pl3     1 RES1   0.0000
     8 C8      26.1875  38.8643   0.4249   C.2       1 RES1   0.0000
     9 N9      25.7427  37.8048   1.1061   N.2       1 RES1   0.0000
    10 C10     25.2522  36.7528   0.4261   C.2       1 RES1   0.0000
    11 C11     25.1393  36.7892  -0.9682   C.2       1 RES1   0.0000
    12 S12     24.3667  35.5017  -1.9051   S.3       1 RES1   0.0000
    13 C13     23.8713  34.2323  -0.7604   C.2       1 RES1   0.0000
    14 C14     24.6491  33.0499  -0.6545   C.2       1 RES1   0.0000
    15 C15     24.2436  31.9981   0.1913   C.2       1 RES1   0.0000
    16 C16     23.0874  32.1749   0.9557   C.2       1 RES1   0.0000
    17 N17     22.3384  33.2982   0.8902   N.2       1 RES1   0.0000
    18 C18     22.7084  34.3228   0.0652   C.2       1 RES1   0.0000
    19 C19     21.8120  35.5625   0.1293   C.3       1 RES1   0.0000
    20 F20     20.6854  35.2255   0.7317   F         1 RES1   0.0000
    21 F21     22.3813  36.5175   0.8709   F         1 RES1   0.0000
    22 F22     21.4760  36.0591  -1.0757   F         1 RES1   0.0000
    23 C23     25.6056  37.9817  -1.5829   C.2       1 RES1   0.0000
    24 O24     25.6165  38.0605  -2.9208   O.2       1 RES1   0.0000
    25 N25     26.1417  38.9950  -0.8992   N.am      1 RES1   0.0000
    26 C26     25.7832  40.3670   2.3428   C.3       1 RES1   0.0000
    27 C27     26.6384  41.1583   3.3301   C.3       1 RES1   0.0000
@<TRIPOS>BOND
     1     1     2    1
     2     2     3    1
     3     3     4    1
     4     2     5    1
     5     5     6    1
     6     6     7    1
     7     7     8    1
     8     8     9    2
     9     9    10    1
    10    10    11    2
    11    11    12    1
    12    12    13    1
    13    13    14    2
    14    14    15    1
    15    15    16    2
    16    16    17    1
    17    17    18    2
    18    18    19    1
    19    19    20    1
    20    19    21    1
    21    19    22    1
    22    11    23    1
    23    23    24    2
    24    23    25   am
    25     7    26    1
    26    26    27    1
    27    27     2    1
    28    25     8    1
    29    18    13    1
@<TRIPOS>SUBSTRUCTURE
     1 RES1        1 GROUP             0 ****  ****    0  
@<TRIPOS>MOLECULE
ligand_6
    27    29     1     0     0
SMALL
USER_CHARGES
****
Generated from the CSD

@<TRIPOS>ATOM
     1 C1      28.1397  41.8811   1.4557   C.3       1 RES1   0.0000
     2 C2      27.3079  42.3342   2.6950   C.3       1 RES1   0.0000
     3 C3      28.3038  43.0371   3.6595   C.3       1 RES1   0.0000
     4 N4      27.7095  43.5329   4.8914   N.3       1 RES1   1.0000
     5 C5      26.7051  41.1003   3.3393   C.3       1 RES1   0.0000
     6 C6      25.6122  40.4976   2.4896   C.3       1 RES1   0.0000
     7 N7      24.5785  41.4883   2.1905   N.pl3     1 RES1   0.0000
     8 C8      23.2849  41.0514   1.8974   C.2       1 RES1   0.0000
     9 N9      23.0951  39.7296   1.8603   N.2       1 RES1   0.0000
    10 C10     21.8480  39.2557   1.6871   C.2       1 RES1   0.0000
    11 C11     20.7533  40.1247   1.6187   C.2       1 RES1   0.0000
    12 S12     19.0783  39.5583   1.5420   S.3       1 RES1   0.0000
    13 C13     19.1184  37.7802   1.4814   C.2       1 RES1   0.0000
    14 C14     18.8100  37.0377   2.6509   C.2       1 RES1   0.0000
    15 C15     18.9013  35.6313   2.6525   C.2       1 RES1   0.0000
    16 C16     19.2531  34.9920   1.4609   C.2       1 RES1   0.0000
    17 N17     19.5326  35.6724   0.3269   N.2       1 RES1   0.0000
    18 C18     19.4628  37.0371   0.3104   C.2       1 RES1   0.0000
    19 C19     19.7411  37.6837  -1.0494   C.3       1 RES1   0.0000
    20 F20     20.3023  36.7772  -1.8296   F         1 RES1   0.0000
    21 F21     18.5994  38.0531  -1.6378   F         1 RES1   0.0000
    22 F22     20.5870  38.7294  -0.9964   F         1 RES1   0.0000
    23 C23     21.0698  41.5064   1.7101   C.2       1 RES1   0.0000
    24 O24     20.0890  42.4077   1.5624   O.2       1 RES1   0.0000
    25 N25     22.3183  41.9640   1.8256   N.am      1 RES1   0.0000
    26 C26     25.1203  42.6511   1.4824   C.3       1 RES1   0.0000
    27 C27     26.2253  43.3080   2.3068   C.3       1 RES1   0.0000
@<TRIPOS>BOND
     1     1     2    1
     2     2     3    1
     3     3     4    1
     4     2     5    1
     5     5     6    1
     6     6     7    1
     7     7     8    1
     8     8     9    2
     9     9    10    1
    10    10    11    2
    11    11    12    1
    12    12    13    1
    13    13    14    2
    14    14    15    1
    15    15    16    2
    16    16    17    1
    17    17    18    2
    18    18    19    1
    19    19    20    1
    20    19    21    1
    21    19    22    1
    22    11    23    1
    23    23    24    2
    24    23    25   am
    25     7    26    1
    26    26    27    1
    27    27     2    1
    28    25     8    1
    29    18    13    1
@<TRIPOS>SUBSTRUCTURE
     1 RES1        1 GROUP             0 ****  ****    0  
@<TRIPOS>MOLECULE
ligand_7
    27    29     1     0     0
SMALL
USER_CHARGES
****
Generated from the CSD

@<TRIPOS>ATOM
     1 C1      28.1396  41.8816   1.4555   C.3       1 RES1   0.0000
     2 C2      27.3079  42.3343   2.6950   C.3       1 RES1   0.0000
     3 C3      28.3038  43.0369   3.6596   C.3       1 RES1   0.0000
     4 N4      27.7090  43.5353   4.8902   N.3       1 RES1   1.0000
     5 C5      26.7053  41.1000   3.3390   C.3       1 RES1   0.0000
     6 C6      25.6123  40.4976   2.4891   C.3       1 RES1   0.0000
     7 N7      24.5785  41.4883   2.1905   N.pl3     1 RES1   0.0000
     8 C8      23.2849  41.0514   1.8974   C.2       1 RES1   0.0000
     9 N9      23.0951  39.7296   1.8603   N.2       1 RES1   0.0000
    10 C10     21.8480  39.2557   1.6871   C.2       1 RES1   0.0000
    11 C11     20.7533  40.1247   1.6187   C.2       1 RES1   0.0000
    12 S12     19.0783  39.5583   1.5420   S.3       1 RES1   0.0000
    13 C13     19.1174  37.7794   1.5087   C.2       1 RES1   0.0000
    14 C14     18.9120  37.1026   0.2783   C.2       1 RES1   0.0000
    15 C15     18.8678  35.6947   0.2329   C.2       1 RES1   0.0000
    16 C16     19.0817  34.9896   1.4201   C.2       1 RES1   0.0000
    17 N17     19.2997  35.6074   2.6023   N.2       1 RES1   0.0000
    18 C18     19.3320  36.9720   2.6681   C.2       1 RES1   0.0000
    19 C19     19.6492  37.5468   4.0514   C.3       1 RES1   0.0000
    20 F20     19.4918  36.5849   4.9432   F         1 RES1   0.0000
    21 F21     20.9259  37.9366   4.1180   F         1 RES1   0.0000
    22 F22     18.8426  38.5583   4.4229   F         1 RES1   0.0000
    23 C23     21.0698  41.5064   1.7101   C.2       1 RES1   0.0000
    24 O24     20.0890  42.4077   1.5624   O.2       1 RES1   0.0000
    25 N25     22.3183  41.9640   1.8256   N.am      1 RES1   0.0000
    26 C26     25.1202  42.6514   1.4827   C.3       1 RES1   0.0000
    27 C27     26.2252  43.3081   2.3072   C.3       1 RES1   0.0000
@<TRIPOS>BOND
     1     1     2    1
     2     2     3    1
     3     3     4    1
     4     2     5    1
     5     5     6    1
     6     6     7    1
     7     7     8    1
     8     8     9    2
     9     9    10    1
    10    10    11    2
    11    11    12    1
    12    12    13    1
    13    13    14    2
    14    14    15    1
    15    15    16    2
    16    16    17    1
    17    17    18    2
    18    18    19    1
    19    19    20    1
    20    19    21    1
    21    19    22    1
    22    11    23    1
    23    23    24    2
    24    23    25   am
    25     7    26    1
    26    26    27    1
    27    27     2    1
    28    25     8    1
    29    18    13    1
@<TRIPOS>SUBSTRUCTURE
     1 RES1        1 GROUP             0 ****  ****    0  
@<TRIPOS>MOLECULE
ligand_8
    27    29     1     0     0
SMALL
USER_CHARGES
****
Generated from the CSD

@<TRIPOS>ATOM
     1 C1      26.6791  41.1375   3.4625   C.3       1 RES1   0.0000
     2 C2      27.3033  42.3428   2.6939   C.3       1 RES1   0.0000
     3 C3      28.3314  42.9952   3.6600   C.3       1 RES1   0.0000
     4 N4      27.7665  43.4868   4.9073   N.3       1 RES1   1.0000
     5 C5      26.1899  43.3132   2.3477   C.3       1 RES1   0.0000
     6 C6      25.2731  42.7623   1.2819   C.3       1 RES1   0.0000
     7 N7      26.0291  42.3872   0.0873   N.pl3     1 RES1   0.0000
     8 C8      25.3778  42.3640  -1.1479   C.2       1 RES1   0.0000
     9 N9      24.0714  42.6425  -1.1394   N.2       1 RES1   0.0000
    10 C10     23.4185  42.7374  -2.3118   C.2       1 RES1   0.0000
    11 C11     24.1036  42.6194  -3.5262   C.2       1 RES1   0.0000
    12 S12     23.3310  42.8824  -5.0966   S.3       1 RES1   0.0000
    13 C13     21.6077  43.2092  -4.7955   C.2       1 RES1   0.0000
    14 C14     21.1287  44.5427  -4.8760   C.2       1 RES1   0.0000
    15 C15     19.7849  44.8415  -4.5744   C.2       1 RES1   0.0000
    16 C16     18.9321  43.7846  -4.2456   C.2       1 RES1   0.0000
    17 N17     19.3560  42.5028  -4.1809   N.2       1 RES1   0.0000
    18 C18     20.6588  42.1959  -4.4563   C.2       1 RES1   0.0000
    19 C19     20.9970  40.7032  -4.4091   C.3       1 RES1   0.0000
    20 F20     20.0095  40.0764  -3.7947   F         1 RES1   0.0000
    21 F21     21.0722  40.1981  -5.6442   F         1 RES1   0.0000
    22 F22     22.1228  40.4173  -3.7292   F         1 RES1   0.0000
    23 C23     25.4964  42.3642  -3.4139   C.2       1 RES1   0.0000
    24 O24     26.2083  42.1479  -4.5286   O.2       1 RES1   0.0000
    25 N25     26.1202  42.2169  -2.2431   N.am      1 RES1   0.0000
    26 C26     27.0513  41.3785   0.3781   C.3       1 RES1   0.0000
    27 C27     28.0159  41.8915   1.4451   C.3       1 RES1   0.0000
@<TRIPOS>BOND
     1     1     2    1
     2     2     3    1
     3     3     4    1
     4     2     5    1
     5     5     6    1
     6     6     7    1
     7     7     8    1
     8     8     9    2
     9     9    10    1
    10    10    11    2
    11    11    12    1
    12    12    13    1
    13    13    14    2
    14    14    15    1
    15    15    16    2
    16    16    17    1
    17    17    18    2
    18    18    19    1
    19    19    20    1
    20    19    21    1
    21    19    22    1
    22    11    23    1
    23    23    24    2
    24    23    25   am
    25     7    26    1
    26    26    27    1
    27    27     2    1
    28    25     8    1
    29    18    13    1
@<TRIPOS>SUBSTRUCTURE
     1 RES1        1 GROUP             0 ****  ****    0  
@<TRIPOS>MOLECULE
ligand_9
    27    29     1     0     0
SMALL
USER_CHARGES
****
Generated from the CSD

@<TRIPOS>ATOM
     1 C1      26.2519  43.4279   2.3280   C.3       1 RES1   0.0000
     2 C2      27.3107  42.3405   2.6879   C.3       1 RES1   0.0000
     3 C3      28.2948  43.0011   3.6934   C.3       1 RES1   0.0000
     4 N4      27.6804  43.4716   4.9254   N.3       1 RES1   1.0000
     5 C5      28.0259  41.9339   1.4134   C.3       1 RES1   0.0000
     6 C6      27.1299  41.1404   0.4929   C.3       1 RES1   0.0000
     7 N7      26.5816  39.9712   1.1796   N.pl3     1 RES1   0.0000
     8 C8      26.1875  38.8643   0.4249   C.2       1 RES1   0.0000
     9 N9      26.2952  38.9772  -0.9018   N.2       1 RES1   0.0000
    10 C10     26.0296  37.9052  -1.6700   C.2       1 RES1   0.0000
    11 C11     25.7155  36.6695  -1.0935   C.2       1 RES1   0.0000
    12 S12     25.5034  35.1908  -2.0426   S.3       1 RES1   0.0000
    13 C13     25.6745  35.6291  -3.7589   C.2       1 RES1   0.0000
    14 C14     26.8813  35.3192  -4.4385   C.2       1 RES1   0.0000
    15 C15     27.0728  35.7159  -5.7772   C.2       1 RES1   0.0000
    16 C16     26.0252  36.3744  -6.4261   C.2       1 RES1   0.0000
    17 N17     24.8576  36.6647  -5.8101   N.2       1 RES1   0.0000
    18 C18     24.6594  36.3003  -4.5080   C.2       1 RES1   0.0000
    19 C19     23.2737  36.6308  -3.9464   C.3       1 RES1   0.0000
    20 F20     22.6910  37.4882  -4.7654   F         1 RES1   0.0000
    21 F21     22.5057  35.5375  -3.9138   F         1 RES1   0.0000
    22 F22     23.2984  37.2083  -2.7309   F         1 RES1   0.0000
    23 C23     25.6695  36.6573   0.3261   C.2       1 RES1   0.0000
    24 O24     25.2875  35.5362   0.9532   O.2       1 RES1   0.0000
    25 N25     25.8806  37.7429   1.0735   N.am      1 RES1   0.0000
    26 C26     25.8050  40.3442   2.3649   C.3       1 RES1   0.0000
    27 C27     26.6707  41.1411   3.3384   C.3       1 RES1   0.0000
@<TRIPOS>BOND
     1     1     2    1
     2     2     3    1
     3     3     4    1
     4     2     5    1
     5     5     6    1
     6     6     7    1
     7     7     8    1
     8     8     9    2
     9     9    10    1
    10    10    11    2
    11    11    12    1
    12    12    13    1
    13    13    14    2
    14    14    15    1
    15    15    16    2
    16    16    17    1
    17    17    18    2
    18    18    19    1
    19    19    20    1
    20    19    21    1
    21    19    22    1
    22    11    23    1
    23    23    24    2
    24    23    25   am
    25     7    26    1
    26    26    27    1
    27    27     2    1
    28    25     8    1
    29    18    13    1
@<TRIPOS>SUBSTRUCTURE
     1 RES1        1 GROUP             0 ****  ****    0  
@<TRIPOS>MOLECULE
ligand_10
    27    29     1     0     0
SMALL
USER_CHARGES
****
Generated from the CSD

@<TRIPOS>ATOM
     1 C1      26.6806  41.1362   3.4617   C.3       1 RES1   0.0000
     2 C2      27.3034  42.3427   2.6938   C.3       1 RES1   0.0000
     3 C3      28.3308  42.9956   3.6603   C.3       1 RES1   0.0000
     4 N4      27.7653  43.4858   4.9080   N.3       1 RES1   1.0000
     5 C5      26.1888  43.3120   2.3483   C.3       1 RES1   0.0000
     6 C6      25.2727  42.7606   1.2822   C.3       1 RES1   0.0000
     7 N7      26.0291  42.3872   0.0873   N.pl3     1 RES1   0.0000
     8 C8      25.3778  42.3640  -1.1479   C.2       1 RES1   0.0000
     9 N9      24.0714  42.6425  -1.1394   N.2       1 RES1   0.0000
    10 C10     23.4185  42.7374  -2.3118   C.2       1 RES1   0.0000
    11 C11     24.1036  42.6194  -3.5262   C.2       1 RES1   0.0000
    12 S12     23.3310  42.8824  -5.0966   S.3       1 RES1   0.0000
    13 C13     21.6132  43.2355  -4.7938   C.2       1 RES1   0.0000
    14 C14     20.6460  42.2201  -5.0115   C.2       1 RES1   0.0000
    15 C15     19.2726  42.4907  -4.8477   C.2       1 RES1   0.0000
    16 C16     18.8986  43.7665  -4.4178   C.2       1 RES1   0.0000
    17 N17     19.7992  44.7467  -4.1835   N.2       1 RES1   0.0000
    18 C18     21.1341  44.5068  -4.3506   C.2       1 RES1   0.0000
    19 C19     22.0529  45.6783  -3.9929   C.3       1 RES1   0.0000
    20 F20     21.3157  46.7722  -3.9186   F         1 RES1   0.0000
    21 F21     22.6028  45.4949  -2.7887   F         1 RES1   0.0000
    22 F22     23.0151  45.9181  -4.9029   F         1 RES1   0.0000
    23 C23     25.4964  42.3642  -3.4139   C.2       1 RES1   0.0000
    24 O24     26.2083  42.1479  -4.5286   O.2       1 RES1   0.0000
    25 N25     26.1202  42.2169  -2.2431   N.am      1 RES1   0.0000
    26 C26     27.0525  41.3795   0.3774   C.3       1 RES1   0.0000
    27 C27     28.0165  41.8930   1.4447   C.3       1 RES1   0.0000
@<TRIPOS>BOND
     1     1     2    1
     2     2     3    1
     3     3     4    1
     4     2     5    1
     5     5     6    1
     6     6     7    1
     7     7     8    1
     8     8     9    2
     9     9    10    1
    10    10    11    2
    11    11    12    1
    12    12    13    1
    13    13    14    2
    14    14    15    1
    15    15    16    2
    16    16    17    1
    17    17    18    2
    18    18    19    1
    19    19    20    1
    20    19    21    1
    21    19    22    1
    22    11    23    1
    23    23    24    2
    24    23    25   am
    25     7    26    1
    26    26    27    1
    27    27     2    1
    28    25     8    1
    29    18    13    1
@<TRIPOS>SUBSTRUCTURE
     1 RES1        1 GROUP             0 ****  ****    0  
@<TRIPOS>MOLECULE
ligand_11
    27    29     1     0     0
SMALL
USER_CHARGES
****
Generated from the CSD

@<TRIPOS>ATOM
     1 C1      26.2506  43.4272   2.3297   C.3       1 RES1   0.0000
     2 C2      27.3106  42.3404   2.6881   C.3       1 RES1   0.0000
     3 C3      28.2953  43.0014   3.6928   C.3       1 RES1   0.0000
     4 N4      27.6818  43.4710   4.9255   N.3       1 RES1   1.0000
     5 C5      28.0248  41.9348   1.4127   C.3       1 RES1   0.0000
     6 C6      27.1284  41.1411   0.4928   C.3       1 RES1   0.0000
     7 N7      26.5816  39.9712   1.1796   N.pl3     1 RES1   0.0000
     8 C8      26.1875  38.8643   0.4249   C.2       1 RES1   0.0000
     9 N9      26.2952  38.9772  -0.9018   N.2       1 RES1   0.0000
    10 C10     26.0296  37.9052  -1.6700   C.2       1 RES1   0.0000
    11 C11     25.7155  36.6695  -1.0935   C.2       1 RES1   0.0000
    12 S12     25.5034  35.1908  -2.0426   S.3       1 RES1   0.0000
    13 C13     25.7010  35.6243  -3.7573   C.2       1 RES1   0.0000
    14 C14     24.5504  35.7596  -4.5771   C.2       1 RES1   0.0000
    15 C15     24.6787  36.0330  -5.9537   C.2       1 RES1   0.0000
    16 C16     25.9630  36.2161  -6.4727   C.2       1 RES1   0.0000
    17 N17     27.0752  36.1131  -5.7116   N.2       1 RES1   0.0000
    18 C18     26.9709  35.8346  -4.3778   C.2       1 RES1   0.0000
    19 C19     28.2988  35.8067  -3.6159   C.3       1 RES1   0.0000
    20 F20     29.2788  35.7319  -4.4987   F         1 RES1   0.0000
    21 F21     28.4738  36.9419  -2.9327   F         1 RES1   0.0000
    22 F22     28.4357  34.7515  -2.7915   F         1 RES1   0.0000
    23 C23     25.6695  36.6573   0.3261   C.2       1 RES1   0.0000
    24 O24     25.2875  35.5362   0.9532   O.2       1 RES1   0.0000
    25 N25     25.8806  37.7429   1.0735   N.am      1 RES1   0.0000
    26 C26     25.8060  40.3432   2.3658   C.3       1 RES1   0.0000
    27 C27     26.6721  41.1404   3.3387   C.3       1 RES1   0.0000
@<TRIPOS>BOND
     1     1     2    1
     2     2     3    1
     3     3     4    1
     4     2     5    1
     5     5     6    1
     6     6     7    1
     7     7     8    1
     8     8     9    2
     9     9    10    1
    10    10    11    2
    11    11    12    1
    12    12    13    1
    13    13    14    2
    14    14    15    1
    15    15    16    2
    16    16    17    1
    17    17    18    2
    18    18    19    1
    19    19    20    1
    20    19    21    1
    21    19    22    1
    22    11    23    1
    23    23    24    2
    24    23    25   am
    25     7    26    1
    26    26    27    1
    27    27     2    1
    28    25     8    1
    29    18    13    1
@<TRIPOS>SUBSTRUCTURE
     1 RES1        1 GROUP             0 ****  ****    0  
@<TRIPOS>MOLECULE
ligand_12
    27    29     1     0     0
SMALL
USER_CHARGES
****
Generated from the CSD

@<TRIPOS>ATOM
     1 C1      28.1494  41.8359   1.4803   C.3       1 RES1   0.0000
     2 C2      27.3085  42.3309   2.6973   C.3       1 RES1   0.0000
     3 C3      28.2996  43.0554   3.6507   C.3       1 RES1   0.0000
     4 N4      27.6954  43.5971   4.8582   N.3       1 RES1   1.0000
     5 C5      26.6910  41.1205   3.3716   C.3       1 RES1   0.0000
     6 C6      25.6024  40.5002   2.5290   C.3       1 RES1   0.0000
     7 N7      24.5785  41.4883   2.1905   N.pl3     1 RES1   0.0000
     8 C8      23.2849  41.0514   1.8974   C.2       1 RES1   0.0000
     9 N9      22.3684  41.9996   1.6838   N.2       1 RES1   0.0000
    10 C10     21.1333  41.6351   1.2946   C.2       1 RES1   0.0000
    11 C11     20.8264  40.2928   1.0455   C.2       1 RES1   0.0000
    12 S12     19.2687  39.7674   0.3898   S.3       1 RES1   0.0000
    13 C13     18.2464  41.2140   0.2188   C.2       1 RES1   0.0000
    14 C14     18.6153  42.2199  -0.7119   C.2       1 RES1   0.0000
    15 C15     17.8645  43.4077  -0.8195   C.2       1 RES1   0.0000
    16 C16     16.7242  43.5414  -0.0232   C.2       1 RES1   0.0000
    17 N17     16.3378  42.5913   0.8571   N.2       1 RES1   0.0000
    18 C18     17.0614  41.4391   0.9851   C.2       1 RES1   0.0000
    19 C19     16.4845  40.4176   1.9692   C.3       1 RES1   0.0000
    20 F20     15.5787  41.0277   2.7125   F         1 RES1   0.0000
    21 F21     15.8565  39.4359   1.3148   F         1 RES1   0.0000
    22 F22     17.3937  39.8955   2.8132   F         1 RES1   0.0000
    23 C23     21.8894  39.3770   1.2666   C.2       1 RES1   0.0000
    24 O24     21.6520  38.0642   1.1383   O.2       1 RES1   0.0000
    25 N25     23.0937  39.7477   1.7068   N.am      1 RES1   0.0000
    26 C26     25.1352  42.6261   1.4539   C.3       1 RES1   0.0000
    27 C27     26.2364  43.2999   2.2697   C.3       1 RES1   0.0000
@<TRIPOS>BOND
     1     1     2    1
     2     2     3    1
     3     3     4    1
     4     2     5    1
     5     5     6    1
     6     6     7    1
     7     7     8    1
     8     8     9    2
     9     9    10    1
    10    10    11    2
    11    11    12    1
    12    12    13    1
    13    13    14    2
    14    14    15    1
    15    15    16    2
    16    16    17    1
    17    17    18    2
    18    18    19    1
    19    19    20    1
    20    19    21    1
    21    19    22    1
    22    11    23    1
    23    23    24    2
    24    23    25   am
    25     7    26    1
    26    26    27    1
    27    27     2    1
    28    25     8    1
    29    18    13    1
@<TRIPOS>SUBSTRUCTURE
     1 RES1        1 GROUP             0 ****  ****    0  
@<TRIPOS>MOLECULE
ligand_13
    27    29     1     0     0
SMALL
USER_CHARGES
****
Generated from the CSD

@<TRIPOS>ATOM
     1 C1      26.6434  41.1692   3.4807   C.3       1 RES1   0.0000
     2 C2      27.3007  42.3456   2.6952   C.3       1 RES1   0.0000
     3 C3      28.3461  42.9834   3.6525   C.3       1 RES1   0.0000
     4 N4      27.7946  43.5080   4.8923   N.3       1 RES1   1.0000
     5 C5      26.2145  43.3411   2.3342   C.3       1 RES1   0.0000
     6 C6      25.2834  42.8002   1.2758   C.3       1 RES1   0.0000
     7 N7      26.0291  42.3872   0.0873   N.pl3     1 RES1   0.0000
     8 C8      25.3778  42.3640  -1.1479   C.2       1 RES1   0.0000
     9 N9      26.1274  42.0655  -2.2126   N.2       1 RES1   0.0000
    10 C10     25.5307  41.9260  -3.4102   C.2       1 RES1   0.0000
    11 C11     24.1399  42.0188  -3.5340   C.2       1 RES1   0.0000
    12 S12     23.2852  41.6977  -5.0501   S.3       1 RES1   0.0000
    13 C13     24.5120  41.3443  -6.2900   C.2       1 RES1   0.0000
    14 C14     25.3086  40.1762  -6.1666   C.2       1 RES1   0.0000
    15 C15     26.3347  39.9065  -7.0942   C.2       1 RES1   0.0000
    16 C16     26.5089  40.7922  -8.1608   C.2       1 RES1   0.0000
    17 N17     25.7520  41.9014  -8.3146   N.2       1 RES1   0.0000
    18 C18     24.7617  42.1865  -7.4171   C.2       1 RES1   0.0000
    19 C19     23.9367  43.4360  -7.7377   C.3       1 RES1   0.0000
    20 F20     24.5868  44.1360  -8.6503   F         1 RES1   0.0000
    21 F21     22.7583  43.0985  -8.2701   F         1 RES1   0.0000
    22 F22     23.7454  44.2518  -6.6843   F         1 RES1   0.0000
    23 C23     23.4416  42.2988  -2.3293   C.2       1 RES1   0.0000
    24 O24     22.1165  42.4932  -2.3776   O.2       1 RES1   0.0000
    25 N25     24.0526  42.4903  -1.1581   N.am      1 RES1   0.0000
    26 C26     27.0231  41.3551   0.3934   C.3       1 RES1   0.0000
    27 C27     28.0011  41.8568   1.4535   C.3       1 RES1   0.0000
@<TRIPOS>BOND
     1     1     2    1
     2     2     3    1
     3     3     4    1
     4     2     5    1
     5     5     6    1
     6     6     7    1
     7     7     8    1
     8     8     9    2
     9     9    10    1
    10    10    11    2
    11    11    12    1
    12    12    13    1
    13    13    14    2
    14    14    15    1
    15    15    16    2
    16    16    17    1
    17    17    18    2
    18    18    19    1
    19    19    20    1
    20    19    21    1
    21    19    22    1
    22    11    23    1
    23    23    24    2
    24    23    25   am
    25     7    26    1
    26    26    27    1
    27    27     2    1
    28    25     8    1
    29    18    13    1
@<TRIPOS>SUBSTRUCTURE
     1 RES1        1 GROUP             0 ****  ****    0  
@<TRIPOS>MOLECULE
ligand_14
    27    29     1     0     0
SMALL
USER_CHARGES
****
Generated from the CSD

@<TRIPOS>ATOM
     1 C1      26.2823  43.4431   2.2899   C.3       1 RES1   0.0000
     2 C2      27.3133  42.3414   2.6851   C.3       1 RES1   0.0000
     3 C3      28.2835  42.9945   3.7090   C.3       1 RES1   0.0000
     4 N4      27.6470  43.4866   4.9211   N.3       1 RES1   1.0000
     5 C5      28.0527  41.9116   1.4322   C.3       1 RES1   0.0000
     6 C6      27.1663  41.1249   0.4967   C.3       1 RES1   0.0000
     7 N7      26.5816  39.9712   1.1796   N.pl3     1 RES1   0.0000
     8 C8      26.1875  38.8643   0.4249   C.2       1 RES1   0.0000
     9 N9      25.7427  37.8048   1.1061   N.2       1 RES1   0.0000
    10 C10     25.2522  36.7528   0.4261   C.2       1 RES1   0.0000
    11 C11     25.1393  36.7892  -0.9682   C.2       1 RES1   0.0000
    12 S12     24.3667  35.5017  -1.9051   S.3       1 RES1   0.0000
    13 C13     23.8872  34.2243  -0.7625   C.2       1 RES1   0.0000
    14 C14     22.8895  34.4991   0.2087   C.2       1 RES1   0.0000
    15 C15     22.5392  33.5307   1.1708   C.2       1 RES1   0.0000
    16 C16     23.1637  32.2824   1.1077   C.2       1 RES1   0.0000
    17 N17     24.1024  31.9861   0.1815   N.2       1 RES1   0.0000
    18 C18     24.4650  32.9174  -0.7506   C.2       1 RES1   0.0000
    19 C19     25.4912  32.4376  -1.7808   C.3       1 RES1   0.0000
    20 F20     26.0323  31.3186  -1.3331   F         1 RES1   0.0000
    21 F21     24.8938  32.1464  -2.9404   F         1 RES1   0.0000
    22 F22     26.5015  33.3017  -1.9916   F         1 RES1   0.0000
    23 C23     25.6056  37.9817  -1.5829   C.2       1 RES1   0.0000
    24 O24     25.6165  38.0605  -2.9208   O.2       1 RES1   0.0000
    25 N25     26.1417  38.9950  -0.8992   N.am      1 RES1   0.0000
    26 C26     25.7825  40.3677   2.3421   C.3       1 RES1   0.0000
    27 C27     26.6374  41.1588   3.3298   C.3       1 RES1   0.0000
@<TRIPOS>BOND
     1     1     2    1
     2     2     3    1
     3     3     4    1
     4     2     5    1
     5     5     6    1
     6     6     7    1
     7     7     8    1
     8     8     9    2
     9     9    10    1
    10    10    11    2
    11    11    12    1
    12    12    13    1
    13    13    14    2
    14    14    15    1
    15    15    16    2
    16    16    17    1
    17    17    18    2
    18    18    19    1
    19    19    20    1
    20    19    21    1
    21    19    22    1
    22    11    23    1
    23    23    24    2
    24    23    25   am
    25     7    26    1
    26    26    27    1
    27    27     2    1
    28    25     8    1
    29    18    13    1
@<TRIPOS>SUBSTRUCTURE
     1 RES1        1 GROUP             0 ****  ****    0  
@<TRIPOS>MOLECULE
ligand_15
    27    29     1     0     0
SMALL
USER_CHARGES
****
Generated from the CSD

@<TRIPOS>ATOM
     1 C1      28.1395  41.8818   1.4554   C.3       1 RES1   0.0000
     2 C2      27.3079  42.3343   2.6950   C.3       1 RES1   0.0000
     3 C3      28.3039  43.0368   3.6597   C.3       1 RES1   0.0000
     4 N4      27.7095  43.5328   4.8915   N.3       1 RES1   1.0000
     5 C5      26.7054  41.0999   3.3388   C.3       1 RES1   0.0000
     6 C6      25.6123  40.4976   2.4889   C.3       1 RES1   0.0000
     7 N7      24.5785  41.4883   2.1905   N.pl3     1 RES1   0.0000
     8 C8      23.2849  41.0514   1.8974   C.2       1 RES1   0.0000
     9 N9      23.0951  39.7296   1.8603   N.2       1 RES1   0.0000
    10 C10     21.8480  39.2557   1.6871   C.2       1 RES1   0.0000
    11 C11     20.7533  40.1247   1.6187   C.2       1 RES1   0.0000
    12 S12     19.0783  39.5583   1.5420   S.3       1 RES1   0.0000
    13 C13     19.1180  37.7798   1.4914   C.2       1 RES1   0.0000
    14 C14     19.6025  37.0631   2.6165   C.2       1 RES1   0.0000
    15 C15     19.7114  35.6585   2.5795   C.2       1 RES1   0.0000
    16 C16     19.2827  34.9940   1.4276   C.2       1 RES1   0.0000
    17 N17     18.7984  35.6491   0.3491   N.2       1 RES1   0.0000
    18 C18     18.6987  37.0120   0.3616   C.2       1 RES1   0.0000
    19 C19     18.0771  37.6278  -0.8951   C.3       1 RES1   0.0000
    20 F20     18.0714  36.7090  -1.8445   F         1 RES1   0.0000
    21 F21     16.8039  37.9678  -0.6726   F         1 RES1   0.0000
    22 F22     18.7544  38.6850  -1.3801   F         1 RES1   0.0000
    23 C23     21.0698  41.5064   1.7101   C.2       1 RES1   0.0000
    24 O24     20.0890  42.4077   1.5624   O.2       1 RES1   0.0000
    25 N25     22.3183  41.9640   1.8256   N.am      1 RES1   0.0000
    26 C26     25.1201  42.6515   1.4829   C.3       1 RES1   0.0000
    27 C27     26.2251  43.3081   2.3074   C.3       1 RES1   0.0000
@<TRIPOS>BOND
     1     1     2    1
     2     2     3    1
     3     3     4    1
     4     2     5    1
     5     5     6    1
     6     6     7    1
     7     7     8    1
     8     8     9    2
     9     9    10    1
    10    10    11    2
    11    11    12    1
    12    12    13    1
    13    13    14    2
    14    14    15    1
    15    15    16    2
    16    16    17    1
    17    17    18    2
    18    18    19    1
    19    19    20    1
    20    19    21    1
    21    19    22    1
    22    11    23    1
    23    23    24    2
    24    23    25   am
    25     7    26    1
    26    26    27    1
    27    27     2    1
    28    25     8    1
    29    18    13    1
@<TRIPOS>SUBSTRUCTURE
     1 RES1        1 GROUP             0 ****  ****    0  
@<TRIPOS>MOLECULE
ligand_16
    27    29     1     0     0
SMALL
USER_CHARGES
****
Generated from the CSD

@<TRIPOS>ATOM
     1 C1      28.1397  41.8811   1.4557   C.3       1 RES1   0.0000
     2 C2      27.3079  42.3342   2.6950   C.3       1 RES1   0.0000
     3 C3      28.3038  43.0371   3.6595   C.3       1 RES1   0.0000
     4 N4      27.7095  43.5329   4.8915   N.3       1 RES1   1.0000
     5 C5      26.7051  41.1002   3.3393   C.3       1 RES1   0.0000
     6 C6      25.6122  40.4976   2.4896   C.3       1 RES1   0.0000
     7 N7      24.5785  41.4883   2.1905   N.pl3     1 RES1   0.0000
     8 C8      23.2849  41.0514   1.8974   C.2       1 RES1   0.0000
     9 N9      23.0951  39.7296   1.8603   N.2       1 RES1   0.0000
    10 C10     21.8480  39.2557   1.6871   C.2       1 RES1   0.0000
    11 C11     20.7533  40.1247   1.6187   C.2       1 RES1   0.0000
    12 S12     19.0783  39.5583   1.5420   S.3       1 RES1   0.0000
    13 C13     19.1184  37.7802   1.4814   C.2       1 RES1   0.0000
    14 C14     19.6609  37.1357   0.3393   C.2       1 RES1   0.0000
    15 C15     19.6424  35.7306   0.2321   C.2       1 RES1   0.0000
    16 C16     19.1234  34.9946   1.3004   C.2       1 RES1   0.0000
    17 N17     18.6187  35.5808   2.4088   N.2       1 RES1   0.0000
    18 C18     18.6154  36.9425   2.5241   C.2       1 RES1   0.0000
    19 C19     18.0746  37.4790   3.8524   C.3       1 RES1   0.0000
    20 F20     17.4340  36.4979   4.4628   F         1 RES1   0.0000
    21 F21     19.0777  37.8493   4.6542   F         1 RES1   0.0000
    22 F22     17.1988  38.4922   3.7186   F         1 RES1   0.0000
    23 C23     21.0698  41.5064   1.7101   C.2       1 RES1   0.0000
    24 O24     20.0890  42.4077   1.5624   O.2       1 RES1   0.0000
    25 N25     22.3183  41.9640   1.8256   N.am      1 RES1   0.0000
    26 C26     25.1203  42.6511   1.4824   C.3       1 RES1   0.0000
    27 C27     26.2253  43.3080   2.3068   C.3       1 RES1   0.0000
@<TRIPOS>BOND
     1     1     2    1
     2     2     3    1
     3     3     4    1
     4     2     5    1
     5     5     6    1
     6     6     7    1
     7     7     8    1
     8     8     9    2
     9     9    10    1
    10    10    11    2
    11    11    12    1
    12    12    13    1
    13    13    14    2
    14    14    15    1
    15    15    16    2
    16    16    17    1
    17    17    18    2
    18    18    19    1
    19    19    20    1
    20    19    21    1
    21    19    22    1
    22    11    23    1
    23    23    24    2
    24    23    25   am
    25     7    26    1
    26    26    27    1
    27    27     2    1
    28    25     8    1
    29    18    13    1
@<TRIPOS>SUBSTRUCTURE
     1 RES1        1 GROUP             0 ****  ****    0  
@<TRIPOS>MOLECULE
ligand_17
    27    29     1     0     0
SMALL
USER_CHARGES
****
Generated from the CSD

@<TRIPOS>ATOM
     1 C1      26.6790  41.1377   3.4626   C.3       1 RES1   0.0000
     2 C2      27.3033  42.3428   2.6939   C.3       1 RES1   0.0000
     3 C3      28.3315  42.9951   3.6600   C.3       1 RES1   0.0000
     4 N4      27.7666  43.4869   4.9072   N.3       1 RES1   1.0000
     5 C5      26.1899  43.3133   2.3477   C.3       1 RES1   0.0000
     6 C6      25.2732  42.7624   1.2819   C.3       1 RES1   0.0000
     7 N7      26.0291  42.3872   0.0873   N.pl3     1 RES1   0.0000
     8 C8      25.3778  42.3640  -1.1479   C.2       1 RES1   0.0000
     9 N9      24.0714  42.6425  -1.1394   N.2       1 RES1   0.0000
    10 C10     23.4185  42.7374  -2.3118   C.2       1 RES1   0.0000
    11 C11     24.1036  42.6194  -3.5262   C.2       1 RES1   0.0000
    12 S12     23.3310  42.8824  -5.0966   S.3       1 RES1   0.0000
    13 C13     21.6095  43.2178  -4.7949   C.2       1 RES1   0.0000
    14 C14     21.2428  44.4010  -4.1023   C.2       1 RES1   0.0000
    15 C15     19.8935  44.6588  -3.7874   C.2       1 RES1   0.0000
    16 C16     18.9292  43.7450  -4.2201   C.2       1 RES1   0.0000
    17 N17     19.2474  42.6203  -4.8989   N.2       1 RES1   0.0000
    18 C18     20.5518  42.3467  -5.2008   C.2       1 RES1   0.0000
    19 C19     20.7732  41.0759  -6.0259   C.3       1 RES1   0.0000
    20 F20     19.6641  40.3594  -5.9844   F         1 RES1   0.0000
    21 F21     20.9947  41.3797  -7.3084   F         1 RES1   0.0000
    22 F22     21.7630  40.2887  -5.5652   F         1 RES1   0.0000
    23 C23     25.4964  42.3642  -3.4139   C.2       1 RES1   0.0000
    24 O24     26.2083  42.1479  -4.5286   O.2       1 RES1   0.0000
    25 N25     26.1202  42.2169  -2.2431   N.am      1 RES1   0.0000
    26 C26     27.0512  41.3784   0.3781   C.3       1 RES1   0.0000
    27 C27     28.0159  41.8914   1.4451   C.3       1 RES1   0.0000
@<TRIPOS>BOND
     1     1     2    1
     2     2     3    1
     3     3     4    1
     4     2     5    1
     5     5     6    1
     6     6     7    1
     7     7     8    1
     8     8     9    2
     9     9    10    1
    10    10    11    2
    11    11    12    1
    12    12    13    1
    13    13    14    2
    14    14    15    1
    15    15    16    2
    16    16    17    1
    17    17    18    2
    18    18    19    1
    19    19    20    1
    20    19    21    1
    21    19    22    1
    22    11    23    1
    23    23    24    2
    24    23    25   am
    25     7    26    1
    26    26    27    1
    27    27     2    1
    28    25     8    1
    29    18    13    1
@<TRIPOS>SUBSTRUCTURE
     1 RES1        1 GROUP             0 ****  ****    0  
@<TRIPOS>MOLECULE
ligand_18
    27    29     1     0     0
SMALL
USER_CHARGES
****
Generated from the CSD

@<TRIPOS>ATOM
     1 C1      26.6791  41.1375   3.4625   C.3       1 RES1   0.0000
     2 C2      27.3033  42.3428   2.6939   C.3       1 RES1   0.0000
     3 C3      28.3314  42.9952   3.6600   C.3       1 RES1   0.0000
     4 N4      27.7665  43.4868   4.9073   N.3       1 RES1   1.0000
     5 C5      26.1899  43.3132   2.3477   C.3       1 RES1   0.0000
     6 C6      25.2731  42.7623   1.2819   C.3       1 RES1   0.0000
     7 N7      26.0291  42.3872   0.0873   N.pl3     1 RES1   0.0000
     8 C8      25.3778  42.3640  -1.1479   C.2       1 RES1   0.0000
     9 N9      24.0714  42.6425  -1.1394   N.2       1 RES1   0.0000
    10 C10     23.4185  42.7374  -2.3118   C.2       1 RES1   0.0000
    11 C11     24.1036  42.6194  -3.5262   C.2       1 RES1   0.0000
    12 S12     23.3310  42.8824  -5.0966   S.3       1 RES1   0.0000
    13 C13     21.6077  43.2092  -4.7955   C.2       1 RES1   0.0000
    14 C14     20.7854  42.1771  -4.2733   C.2       1 RES1   0.0000
    15 C15     19.4035  42.3844  -4.0903   C.2       1 RES1   0.0000
    16 C16     18.8807  43.6453  -4.3888   C.2       1 RES1   0.0000
    17 N17     19.6436  44.6528  -4.8683   N.2       1 RES1   0.0000
    18 C18     20.9828  44.4657  -5.0654   C.2       1 RES1   0.0000
    19 C19     21.7451  45.7013  -5.5520   C.3       1 RES1   0.0000
    20 F20     20.8632  46.5884  -5.9771   F         1 RES1   0.0000
    21 F21     22.4153  46.2684  -4.5443   F         1 RES1   0.0000
    22 F22     22.5814  45.4605  -6.5787   F         1 RES1   0.0000
    23 C23     25.4964  42.3642  -3.4139   C.2       1 RES1   0.0000
    24 O24     26.2083  42.1479  -4.5286   O.2       1 RES1   0.0000
    25 N25     26.1202  42.2169  -2.2431   N.am      1 RES1   0.0000
    26 C26     27.0513  41.3785   0.3781   C.3       1 RES1   0.0000
    27 C27     28.0159  41.8915   1.4451   C.3       1 RES1   0.0000
@<TRIPOS>BOND
     1     1     2    1
     2     2     3    1
     3     3     4    1
     4     2     5    1
     5     5     6    1
     6     6     7    1
     7     7     8    1
     8     8     9    2
     9     9    10    1
    10    10    11    2
    11    11    12    1
    12    12    13    1
    13    13    14    2
    14    14    15    1
    15    15    16    2
    16    16    17    1
    17    17    18    2
    18    18    19    1
    19    19    20    1
    20    19    21    1
    21    19    22    1
    22    11    23    1
    23    23    24    2
    24    23    25   am
    25     7    26    1
    26    26    27    1
    27    27     2    1
    28    25     8    1
    29    18    13    1
@<TRIPOS>SUBSTRUCTURE
     1 RES1        1 GROUP             0 ****  ****    0  
@<TRIPOS>MOLECULE
ligand_19
    27    29     1     0     0
SMALL
USER_CHARGES
****
Generated from the CSD

@<TRIPOS>ATOM
     1 C1      26.2520  43.4280   2.3279   C.3       1 RES1   0.0000
     2 C2      27.3107  42.3405   2.6879   C.3       1 RES1   0.0000
     3 C3      28.2948  43.0011   3.6935   C.3       1 RES1   0.0000
     4 N4      27.6802  43.4716   4.9254   N.3       1 RES1   1.0000
     5 C5      28.0260  41.9338   1.4135   C.3       1 RES1   0.0000
     6 C6      27.1301  41.1403   0.4929   C.3       1 RES1   0.0000
     7 N7      26.5816  39.9712   1.1796   N.pl3     1 RES1   0.0000
     8 C8      26.1875  38.8643   0.4249   C.2       1 RES1   0.0000
     9 N9      26.2952  38.9772  -0.9018   N.2       1 RES1   0.0000
    10 C10     26.0296  37.9052  -1.6700   C.2       1 RES1   0.0000
    11 C11     25.7155  36.6695  -1.0935   C.2       1 RES1   0.0000
    12 S12     25.5034  35.1908  -2.0426   S.3       1 RES1   0.0000
    13 C13     25.6831  35.6276  -3.7584   C.2       1 RES1   0.0000
    14 C14     26.9409  36.0843  -4.2314   C.2       1 RES1   0.0000
    15 C15     27.0954  36.5035  -5.5680   C.2       1 RES1   0.0000
    16 C16     25.9926  36.4082  -6.4206   C.2       1 RES1   0.0000
    17 N17     24.7885  35.9582  -6.0028   N.2       1 RES1   0.0000
    18 C18     24.6162  35.5606  -4.7068   C.2       1 RES1   0.0000
    19 C19     23.2248  35.0136  -4.3762   C.3       1 RES1   0.0000
    20 F20     22.4057  35.3519  -5.3560   F         1 RES1   0.0000
    21 F21     23.2435  33.6781  -4.3259   F         1 RES1   0.0000
    22 F22     22.6977  35.5063  -3.2401   F         1 RES1   0.0000
    23 C23     25.6695  36.6573   0.3261   C.2       1 RES1   0.0000
    24 O24     25.2875  35.5362   0.9532   O.2       1 RES1   0.0000
    25 N25     25.8806  37.7429   1.0735   N.am      1 RES1   0.0000
    26 C26     25.8049  40.3443   2.3648   C.3       1 RES1   0.0000
    27 C27     26.6705  41.1412   3.3384   C.3       1 RES1   0.0000
@<TRIPOS>BOND
     1     1     2    1
     2     2     3    1
     3     3     4    1
     4     2     5    1
     5     5     6    1
     6     6     7    1
     7     7     8    1
     8     8     9    2
     9     9    10    1
    10    10    11    2
    11    11    12    1
    12    12    13    1
    13    13    14    2
    14    14    15    1
    15    15    16    2
    16    16    17    1
    17    17    18    2
    18    18    19    1
    19    19    20    1
    20    19    21    1
    21    19    22    1
    22    11    23    1
    23    23    24    2
    24    23    25   am
    25     7    26    1
    26    26    27    1
    27    27     2    1
    28    25     8    1
    29    18    13    1
@<TRIPOS>SUBSTRUCTURE
     1 RES1        1 GROUP             0 ****  ****    0  
@<TRIPOS>MOLECULE
ligand_20
    27    29     1     0     0
SMALL
USER_CHARGES
****
Generated from the CSD

@<TRIPOS>ATOM
     1 C1      26.2519  43.4279   2.3280   C.3       1 RES1   0.0000
     2 C2      27.3107  42.3405   2.6879   C.3       1 RES1   0.0000
     3 C3      28.2948  43.0011   3.6934   C.3       1 RES1   0.0000
     4 N4      27.6804  43.4716   4.9254   N.3       1 RES1   1.0000
     5 C5      28.0259  41.9339   1.4134   C.3       1 RES1   0.0000
     6 C6      27.1299  41.1404   0.4929   C.3       1 RES1   0.0000
     7 N7      26.5816  39.9712   1.1796   N.pl3     1 RES1   0.0000
     8 C8      26.1875  38.8643   0.4249   C.2       1 RES1   0.0000
     9 N9      26.2952  38.9772  -0.9018   N.2       1 RES1   0.0000
    10 C10     26.0296  37.9052  -1.6700   C.2       1 RES1   0.0000
    11 C11     25.7155  36.6695  -1.0935   C.2       1 RES1   0.0000
    12 S12     25.5034  35.1908  -2.0426   S.3       1 RES1   0.0000
    13 C13     25.6745  35.6291  -3.7589   C.2       1 RES1   0.0000
    14 C14     24.7000  36.4654  -4.3633   C.2       1 RES1   0.0000
    15 C15     24.7707  36.7723  -5.7369   C.2       1 RES1   0.0000
    16 C16     25.8508  36.2730  -6.4694   C.2       1 RES1   0.0000
    17 N17     26.8042  35.4911  -5.9157   N.2       1 RES1   0.0000
    18 C18     26.7443  35.1715  -4.5884   C.2       1 RES1   0.0000
    19 C19     27.9159  34.3326  -4.0704   C.3       1 RES1   0.0000
    20 F20     28.5611  33.8385  -5.1120   F         1 RES1   0.0000
    21 F21     28.7830  35.0977  -3.4003   F         1 RES1   0.0000
    22 F22     27.5464  33.2861  -3.3088   F         1 RES1   0.0000
    23 C23     25.6695  36.6573   0.3261   C.2       1 RES1   0.0000
    24 O24     25.2875  35.5362   0.9532   O.2       1 RES1   0.0000
    25 N25     25.8806  37.7429   1.0735   N.am      1 RES1   0.0000
    26 C26     25.8050  40.3442   2.3649   C.3       1 RES1   0.0000
    27 C27     26.6707  41.1411   3.3384   C.3       1 RES1   0.0000
@<TRIPOS>BOND
     1     1     2    1
     2     2     3    1
     3     3     4    1
     4     2     5    1
     5     5     6    1
     6     6     7    1
     7     7     8    1
     8     8     9    2
     9     9    10    1
    10    10    11    2
    11    11    12    1
    12    12    13    1
    13    13    14    2
    14    14    15    1
    15    15    16    2
    16    16    17    1
    17    17    18    2
    18    18    19    1
    19    19    20    1
    20    19    21    1
    21    19    22    1
    22    11    23    1
    23    23    24    2
    24    23    25   am
    25     7    26    1
    26    26    27    1
    27    27     2    1
    28    25     8    1
    29    18    13    1
@<TRIPOS>SUBSTRUCTURE
     1 RES1        1 GROUP             0 ****  ****    0  
@<TRIPOS>MOLECULE
ligand_21
    27    29     1     0     0
SMALL
USER_CHARGES
****
Generated from the CSD

@<TRIPOS>ATOM
     1 C1      28.1252  41.9455   1.4236   C.3       1 RES1   0.0000
     2 C2      27.3070  42.3390   2.6920   C.3       1 RES1   0.0000
     3 C3      28.3100  43.0110   3.6710   C.3       1 RES1   0.0000
     4 N4      27.7278  43.4537   4.9287   N.3       1 RES1   1.0000
     5 C5      26.7246  41.0737   3.2928   C.3       1 RES1   0.0000
     6 C6      25.6253  40.4962   2.4340   C.3       1 RES1   0.0000
     7 N7      24.5785  41.4883   2.1905   N.pl3     1 RES1   0.0000
     8 C8      23.2849  41.0514   1.8974   C.2       1 RES1   0.0000
     9 N9      22.8114  41.3572   0.6863   N.2       1 RES1   0.0000
    10 C10     21.6136  40.8710   0.3139   C.2       1 RES1   0.0000
    11 C11     20.9023  40.0001   1.1468   C.2       1 RES1   0.0000
    12 S12     19.3970  39.2111   0.6531   S.3       1 RES1   0.0000
    13 C13     18.9891  39.8093  -0.9726   C.2       1 RES1   0.0000
    14 C14     19.2291  38.9799  -2.0989   C.2       1 RES1   0.0000
    15 C15     18.9818  39.4525  -3.4034   C.2       1 RES1   0.0000
    16 C16     18.4485  40.7356  -3.5498   C.2       1 RES1   0.0000
    17 N17     18.1911  41.5398  -2.4943   N.2       1 RES1   0.0000
    18 C18     18.4378  41.1037  -1.2230   C.2       1 RES1   0.0000
    19 C19     18.0453  42.0840  -0.1140   C.3       1 RES1   0.0000
    20 F20     17.8496  43.2697  -0.6627   F         1 RES1   0.0000
    21 F21     16.8901  41.7188   0.4502   F         1 RES1   0.0000
    22 F22     18.9867  42.2442   0.8345   F         1 RES1   0.0000
    23 C23     21.5207  39.7130   2.3928   C.2       1 RES1   0.0000
    24 O24     20.8631  38.9600   3.2853   O.2       1 RES1   0.0000
    25 N25     22.6836  40.2475   2.7718   N.am      1 RES1   0.0000
    26 C26     25.0997  42.6845   1.5238   C.3       1 RES1   0.0000
    27 C27     26.2102  43.3175   2.3594   C.3       1 RES1   0.0000
@<TRIPOS>BOND
     1     1     2    1
     2     2     3    1
     3     3     4    1
     4     2     5    1
     5     5     6    1
     6     6     7    1
     7     7     8    1
     8     8     9    2
     9     9    10    1
    10    10    11    2
    11    11    12    1
    12    12    13    1
    13    13    14    2
    14    14    15    1
    15    15    16    2
    16    16    17    1
    17    17    18    2
    18    18    19    1
    19    19    20    1
    20    19    21    1
    21    19    22    1
    22    11    23    1
    23    23    24    2
    24    23    25   am
    25     7    26    1
    26    26    27    1
    27    27     2    1
    28    25     8    1
    29    18    13    1
@<TRIPOS>SUBSTRUCTURE
     1 RES1        1 GROUP             0 ****  ****    0  
@<TRIPOS>MOLECULE
ligand_22
    27    29     1     0     0
SMALL
USER_CHARGES
****
Generated from the CSD

@<TRIPOS>ATOM
     1 C1      28.1252  41.9455   1.4236   C.3       1 RES1   0.0000
     2 C2      27.3070  42.3390   2.6920   C.3       1 RES1   0.0000
     3 C3      28.3100  43.0110   3.6710   C.3       1 RES1   0.0000
     4 N4      27.7278  43.4537   4.9287   N.3       1 RES1   1.0000
     5 C5      26.7246  41.0737   3.2928   C.3       1 RES1   0.0000
     6 C6      25.6253  40.4962   2.4340   C.3       1 RES1   0.0000
     7 N7      24.5785  41.4883   2.1905   N.pl3     1 RES1   0.0000
     8 C8      23.2849  41.0514   1.8974   C.2       1 RES1   0.0000
     9 N9      23.1299  40.3621   0.7636   N.2       1 RES1   0.0000
    10 C10     21.9269  39.8279   0.4859   C.2       1 RES1   0.0000
    11 C11     20.8702  39.9264   1.3980   C.2       1 RES1   0.0000
    12 S12     19.3135  39.1194   1.1582   S.3       1 RES1   0.0000
    13 C13     19.3727  38.3045  -0.4228   C.2       1 RES1   0.0000
    14 C14     19.5636  36.8991  -0.4737   C.2       1 RES1   0.0000
    15 C15     19.6847  36.2361  -1.7114   C.2       1 RES1   0.0000
    16 C16     19.5608  36.9926  -2.8796   C.2       1 RES1   0.0000
    17 N17     19.3587  38.3289  -2.8613   N.2       1 RES1   0.0000
    18 C18     19.2528  38.9908  -1.6705   C.2       1 RES1   0.0000
    19 C19     18.9625  40.4899  -1.7859   C.3       1 RES1   0.0000
    20 F20     19.1998  40.8607  -3.0315   F         1 RES1   0.0000
    21 F21     17.6723  40.7398  -1.5427   F         1 RES1   0.0000
    22 F22     19.7339  41.2601  -0.9964   F         1 RES1   0.0000
    23 C23     21.1614  40.6465   2.5872   C.2       1 RES1   0.0000
    24 O24     20.1779  40.8641   3.4712   O.2       1 RES1   0.0000
    25 N25     22.3437  41.2191   2.8239   N.am      1 RES1   0.0000
    26 C26     25.0997  42.6845   1.5238   C.3       1 RES1   0.0000
    27 C27     26.2102  43.3175   2.3594   C.3       1 RES1   0.0000
@<TRIPOS>BOND
     1     1     2    1
     2     2     3    1
     3     3     4    1
     4     2     5    1
     5     5     6    1
     6     6     7    1
     7     7     8    1
     8     8     9    2
     9     9    10    1
    10    10    11    2
    11    11    12    1
    12    12    13    1
    13    13    14    2
    14    14    15    1
    15    15    16    2
    16    16    17    1
    17    17    18    2
    18    18    19    1
    19    19    20    1
    20    19    21    1
    21    19    22    1
    22    11    23    1
    23    23    24    2
    24    23    25   am
    25     7    26    1
    26    26    27    1
    27    27     2    1
    28    25     8    1
    29    18    13    1
@<TRIPOS>SUBSTRUCTURE
     1 RES1        1 GROUP             0 ****  ****    0  
@<TRIPOS>MOLECULE
ligand_23
    27    29     1     0     0
SMALL
USER_CHARGES
****
Generated from the CSD

@<TRIPOS>ATOM
     1 C1      28.1178  41.9774   1.4090   C.3       1 RES1   0.0000
     2 C2      27.3065  42.3414   2.6906   C.3       1 RES1   0.0000
     3 C3      28.3132  42.9981   3.6762   C.3       1 RES1   0.0000
     4 N4      27.7381  43.4108   4.9472   N.3       1 RES1   1.0000
     5 C5      26.7340  41.0615   3.2697   C.3       1 RES1   0.0000
     6 C6      25.6314  40.4963   2.4068   C.3       1 RES1   0.0000
     7 N7      24.5785  41.4883   2.1905   N.pl3     1 RES1   0.0000
     8 C8      23.2849  41.0514   1.8974   C.2       1 RES1   0.0000
     9 N9      22.6521  40.3720   2.8579   N.2       1 RES1   0.0000
    10 C10     21.3677  40.0199   2.6679   C.2       1 RES1   0.0000
    11 C11     20.6774  40.4174   1.5174   C.2       1 RES1   0.0000
    12 S12     18.9501  40.1147   1.2787   S.3       1 RES1   0.0000
    13 C13     18.3726  39.1837   2.6812   C.2       1 RES1   0.0000
    14 C14     17.6271  39.8423   3.6935   C.2       1 RES1   0.0000
    15 C15     17.2168  39.1475   4.8489   C.2       1 RES1   0.0000
    16 C16     17.5204  37.7868   4.9428   C.2       1 RES1   0.0000
    17 N17     18.2112  37.1292   3.9851   N.2       1 RES1   0.0000
    18 C18     18.6294  37.7899   2.8644   C.2       1 RES1   0.0000
    19 C19     19.3461  36.9194   1.8284   C.3       1 RES1   0.0000
    20 F20     19.6781  35.7792   2.4073   F         1 RES1   0.0000
    21 F21     18.5259  36.6198   0.8166   F         1 RES1   0.0000
    22 F22     20.4827  37.4592   1.3507   F         1 RES1   0.0000
    23 C23     21.4384  41.1703   0.5839   C.2       1 RES1   0.0000
    24 O24     20.8779  41.5120  -0.5846   O.2       1 RES1   0.0000
    25 N25     22.7284  41.4642   0.7606   N.am      1 RES1   0.0000
    26 C26     25.0897  42.7002   1.5446   C.3       1 RES1   0.0000
    27 C27     26.2030  43.3213   2.3853   C.3       1 RES1   0.0000
@<TRIPOS>BOND
     1     1     2    1
     2     2     3    1
     3     3     4    1
     4     2     5    1
     5     5     6    1
     6     6     7    1
     7     7     8    1
     8     8     9    2
     9     9    10    1
    10    10    11    2
    11    11    12    1
    12    12    13    1
    13    13    14    2
    14    14    15    1
    15    15    16    2
    16    16    17    1
    17    17    18    2
    18    18    19    1
    19    19    20    1
    20    19    21    1
    21    19    22    1
    22    11    23    1
    23    23    24    2
    24    23    25   am
    25     7    26    1
    26    26    27    1
    27    27     2    1
    28    25     8    1
    29    18    13    1
@<TRIPOS>SUBSTRUCTURE
     1 RES1        1 GROUP             0 ****  ****    0  
@<TRIPOS>MOLECULE
ligand_24
    27    29     1     0     0
SMALL
USER_CHARGES
****
Generated from the CSD

@<TRIPOS>ATOM
     1 C1      28.1252  41.9455   1.4236   C.3       1 RES1   0.0000
     2 C2      27.3070  42.3390   2.6920   C.3       1 RES1   0.0000
     3 C3      28.3100  43.0110   3.6710   C.3       1 RES1   0.0000
     4 N4      27.7278  43.4537   4.9287   N.3       1 RES1   1.0000
     5 C5      26.7246  41.0737   3.2928   C.3       1 RES1   0.0000
     6 C6      25.6253  40.4962   2.4340   C.3       1 RES1   0.0000
     7 N7      24.5785  41.4883   2.1905   N.pl3     1 RES1   0.0000
     8 C8      23.2849  41.0514   1.8974   C.2       1 RES1   0.0000
     9 N9      22.3336  41.3671   2.7805   N.2       1 RES1   0.0000
    10 C10     21.0544  41.0629   2.4959   C.2       1 RES1   0.0000
    11 C11     20.7094  40.4911   1.2662   C.2       1 RES1   0.0000
    12 S12     19.0335  40.2063   0.7736   S.3       1 RES1   0.0000
    13 C13     17.9889  40.6884   2.1314   C.2       1 RES1   0.0000
    14 C14     17.2913  41.9227   2.0675   C.2       1 RES1   0.0000
    15 C15     16.5125  42.3636   3.1561   C.2       1 RES1   0.0000
    16 C16     16.4080  41.5300   4.2726   C.2       1 RES1   0.0000
    17 N17     17.0449  40.3405   4.3528   N.2       1 RES1   0.0000
    18 C18     17.8157  39.9031   3.3126   C.2       1 RES1   0.0000
    19 C19     18.4318  38.5141   3.5018   C.3       1 RES1   0.0000
    20 F20     18.3324  38.1898   4.7787   F         1 RES1   0.0000
    21 F21     17.7472  37.5972   2.8112   F         1 RES1   0.0000
    22 F22     19.7376  38.4454   3.1829   F         1 RES1   0.0000
    23 C23     21.7977  40.2369   0.3895   C.2       1 RES1   0.0000
    24 O24     21.5631  39.6079  -0.7705   O.2       1 RES1   0.0000
    25 N25     23.0683  40.4927   0.7086   N.am      1 RES1   0.0000
    26 C26     25.0997  42.6845   1.5238   C.3       1 RES1   0.0000
    27 C27     26.2102  43.3175   2.3594   C.3       1 RES1   0.0000
@<TRIPOS>BOND
     1     1     2    1
     2     2     3    1
     3     3     4    1
     4     2     5    1
     5     5     6    1
     6     6     7    1
     7     7     8    1
     8     8     9    2
     9     9    10    1
    10    10    11    2
    11    11    12    1
    12    12    13    1
    13    13    14    2
    14    14    15    1
    15    15    16    2
    16    16    17    1
    17    17    18    2
    18    18    19    1
    19    19    20    1
    20    19    21    1
    21    19    22    1
    22    11    23    1
    23    23    24    2
    24    23    25   am
    25     7    26    1
    26    26    27    1
    27    27     2    1
    28    25     8    1
    29    18    13    1
@<TRIPOS>SUBSTRUCTURE
     1 RES1        1 GROUP             0 ****  ****    0  
@<TRIPOS>MOLECULE
ligand_25
    27    29     1     0     0
SMALL
USER_CHARGES
****
Generated from the CSD

@<TRIPOS>ATOM
     1 C1      26.7313  41.0947   3.4358   C.3       1 RES1   0.0000
     2 C2      27.3070  42.3390   2.6920   C.3       1 RES1   0.0000
     3 C3      28.3100  43.0110   3.6710   C.3       1 RES1   0.0000
     4 N4      27.7274  43.4556   4.9278   N.3       1 RES1   1.0000
     5 C5      26.1561  43.2721   2.3663   C.3       1 RES1   0.0000
     6 C6      25.2604  42.7077   1.2897   C.3       1 RES1   0.0000
     7 N7      26.0291  42.3872   0.0873   N.pl3     1 RES1   0.0000
     8 C8      25.3778  42.3640  -1.1479   C.2       1 RES1   0.0000
     9 N9      25.3287  41.1854  -1.7749   N.2       1 RES1   0.0000
    10 C10     24.6232  41.0841  -2.9159   C.2       1 RES1   0.0000
    11 C11     23.8911  42.1714  -3.4057   C.2       1 RES1   0.0000
    12 S12     22.8269  42.0583  -4.8153   S.3       1 RES1   0.0000
    13 C13     22.9703  40.4062  -5.4611   C.2       1 RES1   0.0000
    14 C14     21.9366  39.4679  -5.2057   C.2       1 RES1   0.0000
    15 C15     22.0546  38.1337  -5.6441   C.2       1 RES1   0.0000
    16 C16     23.1897  37.7785  -6.3773   C.2       1 RES1   0.0000
    17 N17     24.1802  38.6561  -6.6527   N.2       1 RES1   0.0000
    18 C18     24.0896  39.9503  -6.2236   C.2       1 RES1   0.0000
    19 C19     25.2453  40.8581  -6.6536   C.3       1 RES1   0.0000
    20 F20     26.2340  40.0924  -7.0797   F         1 RES1   0.0000
    21 F21     24.8797  41.6317  -7.6803   F         1 RES1   0.0000
    22 F22     25.7423  41.6200  -5.6616   F         1 RES1   0.0000
    23 C23     23.9845  43.3612  -2.6355   C.2       1 RES1   0.0000
    24 O24     23.3866  44.4734  -3.0846   O.2       1 RES1   0.0000
    25 N25     24.7338  43.4627  -1.5355   N.am      1 RES1   0.0000
    26 C26     27.0903  41.4135   0.3569   C.3       1 RES1   0.0000
    27 C27     28.0353  41.9417   1.4339   C.3       1 RES1   0.0000
@<TRIPOS>BOND
     1     1     2    1
     2     2     3    1
     3     3     4    1
     4     2     5    1
     5     5     6    1
     6     6     7    1
     7     7     8    1
     8     8     9    2
     9     9    10    1
    10    10    11    2
    11    11    12    1
    12    12    13    1
    13    13    14    2
    14    14    15    1
    15    15    16    2
    16    16    17    1
    17    17    18    2
    18    18    19    1
    19    19    20    1
    20    19    21    1
    21    19    22    1
    22    11    23    1
    23    23    24    2
    24    23    25   am
    25     7    26    1
    26    26    27    1
    27    27     2    1
    28    25     8    1
    29    18    13    1
@<TRIPOS>SUBSTRUCTURE
     1 RES1        1 GROUP             0 ****  ****    0  
@<TRIPOS>MOLECULE
ligand_26
    27    29     1     0     0
SMALL
USER_CHARGES
****
Generated from the CSD

@<TRIPOS>ATOM
     1 C1      26.7313  41.0947   3.4358   C.3       1 RES1   0.0000
     2 C2      27.3070  42.3390   2.6920   C.3       1 RES1   0.0000
     3 C3      28.3100  43.0110   3.6710   C.3       1 RES1   0.0000
     4 N4      27.7274  43.4556   4.9278   N.3       1 RES1   1.0000
     5 C5      26.1561  43.2721   2.3663   C.3       1 RES1   0.0000
     6 C6      25.2604  42.7077   1.2897   C.3       1 RES1   0.0000
     7 N7      26.0291  42.3872   0.0873   N.pl3     1 RES1   0.0000
     8 C8      25.3778  42.3640  -1.1479   C.2       1 RES1   0.0000
     9 N9      24.4274  41.4384  -1.3044   N.2       1 RES1   0.0000
    10 C10     23.6973  41.4399  -2.4344   C.2       1 RES1   0.0000
    11 C11     23.8752  42.4347  -3.4023   C.2       1 RES1   0.0000
    12 S12     22.8469  42.5776  -4.8356   S.3       1 RES1   0.0000
    13 C13     21.6969  41.2198  -4.8051   C.2       1 RES1   0.0000
    14 C14     20.3545  41.4547  -4.4089   C.2       1 RES1   0.0000
    15 C15     19.4394  40.3876  -4.3077   C.2       1 RES1   0.0000
    16 C16     19.8779  39.1076  -4.6562   C.2       1 RES1   0.0000
    17 N17     21.1447  38.8578  -5.0561   N.2       1 RES1   0.0000
    18 C18     22.0496  39.8778  -5.1467   C.2       1 RES1   0.0000
    19 C19     23.4306  39.4743  -5.6708   C.3       1 RES1   0.0000
    20 F20     23.5241  38.1577  -5.6144   F         1 RES1   0.0000
    21 F21     23.5672  39.8213  -6.9542   F         1 RES1   0.0000
    22 F22     24.4557  39.9687  -4.9522   F         1 RES1   0.0000
    23 C23     24.8853  43.3898  -3.1110   C.2       1 RES1   0.0000
    24 O24     25.1804  44.3220  -4.0275   O.2       1 RES1   0.0000
    25 N25     25.6402  43.3429  -2.0112   N.am      1 RES1   0.0000
    26 C26     27.0903  41.4135   0.3569   C.3       1 RES1   0.0000
    27 C27     28.0353  41.9417   1.4339   C.3       1 RES1   0.0000
@<TRIPOS>BOND
     1     1     2    1
     2     2     3    1
     3     3     4    1
     4     2     5    1
     5     5     6    1
     6     6     7    1
     7     7     8    1
     8     8     9    2
     9     9    10    1
    10    10    11    2
    11    11    12    1
    12    12    13    1
    13    13    14    2
    14    14    15    1
    15    15    16    2
    16    16    17    1
    17    17    18    2
    18    18    19    1
    19    19    20    1
    20    19    21    1
    21    19    22    1
    22    11    23    1
    23    23    24    2
    24    23    25   am
    25     7    26    1
    26    26    27    1
    27    27     2    1
    28    25     8    1
    29    18    13    1
@<TRIPOS>SUBSTRUCTURE
     1 RES1        1 GROUP             0 ****  ****    0  
@<TRIPOS>MOLECULE
ligand_27
    27    29     1     0     0
SMALL
USER_CHARGES
****
Generated from the CSD

@<TRIPOS>ATOM
     1 C1      26.7541  41.0771   3.4241   C.3       1 RES1   0.0000
     2 C2      27.3086  42.3374   2.6912   C.3       1 RES1   0.0000
     3 C3      28.3006  43.0174   3.6758   C.3       1 RES1   0.0000
     4 N4      27.7113  43.4407   4.9368   N.3       1 RES1   1.0000
     5 C5      26.1422  43.2539   2.3740   C.3       1 RES1   0.0000
     6 C6      25.2556  42.6842   1.2926   C.3       1 RES1   0.0000
     7 N7      26.0291  42.3872   0.0873   N.pl3     1 RES1   0.0000
     8 C8      25.3778  42.3640  -1.1479   C.2       1 RES1   0.0000
     9 N9      24.8700  43.5226  -1.5771   N.2       1 RES1   0.0000
    10 C10     24.3259  43.5793  -2.8061   C.2       1 RES1   0.0000
    11 C11     24.3525  42.4668  -3.6545   C.2       1 RES1   0.0000
    12 S12     23.7893  42.5218  -5.3315   S.3       1 RES1   0.0000
    13 C13     23.1499  44.1562  -5.6264   C.2       1 RES1   0.0000
    14 C14     23.9300  45.0854  -6.3627   C.2       1 RES1   0.0000
    15 C15     23.4810  46.4077  -6.5522   C.2       1 RES1   0.0000
    16 C16     22.2293  46.7588  -6.0400   C.2       1 RES1   0.0000
    17 N17     21.4561  45.8891  -5.3524   N.2       1 RES1   0.0000
    18 C18     21.8814  44.6068  -5.1468   C.2       1 RES1   0.0000
    19 C19     20.8879  43.7049  -4.4092   C.3       1 RES1   0.0000
    20 F20     19.9661  44.4731  -3.8563   F         1 RES1   0.0000
    21 F21     20.2592  42.8960  -5.2675   F         1 RES1   0.0000
    22 F22     21.4374  42.9802  -3.4170   F         1 RES1   0.0000
    23 C23     24.9535  41.3019  -3.1076   C.2       1 RES1   0.0000
    24 O24     24.9381  40.1677  -3.8216   O.2       1 RES1   0.0000
    25 N25     25.4391  41.2444  -1.8656   N.am      1 RES1   0.0000
    26 C26     27.1065  41.4290   0.3480   C.3       1 RES1   0.0000
    27 C27     28.0430  41.9635   1.4294   C.3       1 RES1   0.0000
@<TRIPOS>BOND
     1     1     2    1
     2     2     3    1
     3     3     4    1
     4     2     5    1
     5     5     6    1
     6     6     7    1
     7     7     8    1
     8     8     9    2
     9     9    10    1
    10    10    11    2
    11    11    12    1
    12    12    13    1
    13    13    14    2
    14    14    15    1
    15    15    16    2
    16    16    17    1
    17    17    18    2
    18    18    19    1
    19    19    20    1
    20    19    21    1
    21    19    22    1
    22    11    23    1
    23    23    24    2
    24    23    25   am
    25     7    26    1
    26    26    27    1
    27    27     2    1
    28    25     8    1
    29    18    13    1
@<TRIPOS>SUBSTRUCTURE
     1 RES1        1 GROUP             0 ****  ****    0  
@<TRIPOS>MOLECULE
ligand_28
    27    29     1     0     0
SMALL
USER_CHARGES
****
Generated from the CSD

@<TRIPOS>ATOM
     1 C1      26.7313  41.0947   3.4358   C.3       1 RES1   0.0000
     2 C2      27.3070  42.3390   2.6920   C.3       1 RES1   0.0000
     3 C3      28.3100  43.0110   3.6710   C.3       1 RES1   0.0000
     4 N4      27.7274  43.4556   4.9278   N.3       1 RES1   1.0000
     5 C5      26.1561  43.2721   2.3663   C.3       1 RES1   0.0000
     6 C6      25.2604  42.7077   1.2897   C.3       1 RES1   0.0000
     7 N7      26.0291  42.3872   0.0873   N.pl3     1 RES1   0.0000
     8 C8      25.3778  42.3640  -1.1479   C.2       1 RES1   0.0000
     9 N9      25.7713  43.2697  -2.0475   N.2       1 RES1   0.0000
    10 C10     25.2519  43.2236  -3.2876   C.2       1 RES1   0.0000
    11 C11     24.3684  42.2035  -3.6580   C.2       1 RES1   0.0000
    12 S12     23.7693  42.0025  -5.3111   S.3       1 RES1   0.0000
    13 C13     24.4232  43.3426  -6.2825   C.2       1 RES1   0.0000
    14 C14     25.5122  43.0987  -7.1593   C.2       1 RES1   0.0000
    15 C15     26.0962  44.1539  -7.8884   C.2       1 RES1   0.0000
    16 C16     25.5411  45.4298  -7.7611   C.2       1 RES1   0.0000
    17 N17     24.4915  45.6873  -6.9493   N.2       1 RES1   0.0000
    18 C18     23.9213  44.6793  -6.2239   C.2       1 RES1   0.0000
    19 C19     22.7023  45.0886  -5.3925   C.3       1 RES1   0.0000
    20 F20     22.6756  46.4076  -5.3224   F         1 RES1   0.0000
    21 F21     21.5719  44.7061  -5.9941   F         1 RES1   0.0000
    22 F22     22.7236  44.6315  -4.1267   F         1 RES1   0.0000
    23 C23     24.0527  41.2732  -2.6322   C.2       1 RES1   0.0000
    24 O24     23.1444  40.3191  -2.8787   O.2       1 RES1   0.0000
    25 N25     24.5327  41.3643  -1.3900   N.am      1 RES1   0.0000
    26 C26     27.0903  41.4135   0.3569   C.3       1 RES1   0.0000
    27 C27     28.0353  41.9417   1.4339   C.3       1 RES1   0.0000
@<TRIPOS>BOND
     1     1     2    1
     2     2     3    1
     3     3     4    1
     4     2     5    1
     5     5     6    1
     6     6     7    1
     7     7     8    1
     8     8     9    2
     9     9    10    1
    10    10    11    2
    11    11    12    1
    12    12    13    1
    13    13    14    2
    14    14    15    1
    15    15    16    2
    16    16    17    1
    17    17    18    2
    18    18    19    1
    19    19    20    1
    20    19    21    1
    21    19    22    1
    22    11    23    1
    23    23    24    2
    24    23    25   am
    25     7    26    1
    26    26    27    1
    27    27     2    1
    28    25     8    1
    29    18    13    1
@<TRIPOS>SUBSTRUCTURE
     1 RES1        1 GROUP             0 ****  ****    0  
@<TRIPOS>MOLECULE
ligand_29
    27    29     1     0     0
SMALL
USER_CHARGES
****
Generated from the CSD

@<TRIPOS>ATOM
     1 C1      26.2108  43.4049   2.3833   C.3       1 RES1   0.0000
     2 C2      27.3070  42.3390   2.6920   C.3       1 RES1   0.0000
     3 C3      28.3100  43.0110   3.6710   C.3       1 RES1   0.0000
     4 N4      27.7286  43.4504   4.9302   N.3       1 RES1   1.0000
     5 C5      27.9864  41.9652   1.3882   C.3       1 RES1   0.0000
     6 C6      27.0776  41.1615   0.4893   C.3       1 RES1   0.0000
     7 N7      26.5816  39.9712   1.1796   N.pl3     1 RES1   0.0000
     8 C8      26.1875  38.8643   0.4249   C.2       1 RES1   0.0000
     9 N9      24.8979  38.5228   0.4942   N.2       1 RES1   0.0000
    10 C10     24.4439  37.5310  -0.2933   C.2       1 RES1   0.0000
    11 C11     25.2855  36.9114  -1.2238   C.2       1 RES1   0.0000
    12 S12     24.7124  35.7080  -2.3880   S.3       1 RES1   0.0000
    13 C13     22.9858  35.4279  -2.0599   C.2       1 RES1   0.0000
    14 C14     22.0127  36.0123  -2.9117   C.2       1 RES1   0.0000
    15 C15     20.6382  35.8663  -2.6366   C.2       1 RES1   0.0000
    16 C16     20.2648  35.0909  -1.5358   C.2       1 RES1   0.0000
    17 N17     21.1693  34.5060  -0.7193   N.2       1 RES1   0.0000
    18 C18     22.5065  34.6484  -0.9623   C.2       1 RES1   0.0000
    19 C19     23.4243  33.8863  -0.0024   C.3       1 RES1   0.0000
    20 F20     22.7092  33.5169   1.0453   F         1 RES1   0.0000
    21 F21     23.8829  32.7697  -0.5760   F         1 RES1   0.0000
    22 F22     24.4540  34.6154   0.4663   F         1 RES1   0.0000
    23 C23     26.6252  37.3832  -1.2376   C.2       1 RES1   0.0000
    24 O24     27.5172  36.7805  -2.0359   O.2       1 RES1   0.0000
    25 N25     27.0752  38.3298  -0.4110   N.am      1 RES1   0.0000
    26 C26     25.8386  40.3111   2.3960   C.3       1 RES1   0.0000
    27 C27     26.7188  41.1168   3.3489   C.3       1 RES1   0.0000
@<TRIPOS>BOND
     1     1     2    1
     2     2     3    1
     3     3     4    1
     4     2     5    1
     5     5     6    1
     6     6     7    1
     7     7     8    1
     8     8     9    2
     9     9    10    1
    10    10    11    2
    11    11    12    1
    12    12    13    1
    13    13    14    2
    14    14    15    1
    15    15    16    2
    16    16    17    1
    17    17    18    2
    18    18    19    1
    19    19    20    1
    20    19    21    1
    21    19    22    1
    22    11    23    1
    23    23    24    2
    24    23    25   am
    25     7    26    1
    26    26    27    1
    27    27     2    1
    28    25     8    1
    29    18    13    1
@<TRIPOS>SUBSTRUCTURE
     1 RES1        1 GROUP             0 ****  ****    0  
@<TRIPOS>MOLECULE
ligand_30
    27    29     1     0     0
SMALL
USER_CHARGES
****
Generated from the CSD

@<TRIPOS>ATOM
     1 C1      26.2108  43.4049   2.3833   C.3       1 RES1   0.0000
     2 C2      27.3070  42.3390   2.6920   C.3       1 RES1   0.0000
     3 C3      28.3100  43.0110   3.6710   C.3       1 RES1   0.0000
     4 N4      27.7286  43.4504   4.9302   N.3       1 RES1   1.0000
     5 C5      27.9864  41.9652   1.3882   C.3       1 RES1   0.0000
     6 C6      27.0776  41.1615   0.4893   C.3       1 RES1   0.0000
     7 N7      26.5816  39.9712   1.1796   N.pl3     1 RES1   0.0000
     8 C8      26.1875  38.8643   0.4249   C.2       1 RES1   0.0000
     9 N9      25.1401  39.0368  -0.3861   N.2       1 RES1   0.0000
    10 C10     24.7847  38.0363  -1.2122   C.2       1 RES1   0.0000
    11 C11     25.5382  36.8589  -1.2787   C.2       1 RES1   0.0000
    12 S12     25.2107  35.5717  -2.4483   S.3       1 RES1   0.0000
    13 C13     23.7658  36.0455  -3.3729   C.2       1 RES1   0.0000
    14 C14     23.9181  36.5476  -4.6916   C.2       1 RES1   0.0000
    15 C15     22.7994  36.9960  -5.4220   C.2       1 RES1   0.0000
    16 C16     21.5381  36.8844  -4.8311   C.2       1 RES1   0.0000
    17 N17     21.3612  36.3916  -3.5849   N.2       1 RES1   0.0000
    18 C18     22.4358  35.9651  -2.8565   C.2       1 RES1   0.0000
    19 C19     22.0956  35.3714  -1.4866   C.3       1 RES1   0.0000
    20 F20     20.8514  35.7033  -1.1913   F         1 RES1   0.0000
    21 F21     22.1451  34.0364  -1.5264   F         1 RES1   0.0000
    22 F22     22.8689  35.8277  -0.4840   F         1 RES1   0.0000
    23 C23     26.6532  36.8026  -0.4007   C.2       1 RES1   0.0000
    24 O24     27.3729  35.6738  -0.3376   O.2       1 RES1   0.0000
    25 N25     26.9607  37.7809   0.4537   N.am      1 RES1   0.0000
    26 C26     25.8386  40.3111   2.3960   C.3       1 RES1   0.0000
    27 C27     26.7188  41.1168   3.3489   C.3       1 RES1   0.0000
@<TRIPOS>BOND
     1     1     2    1
     2     2     3    1
     3     3     4    1
     4     2     5    1
     5     5     6    1
     6     6     7    1
     7     7     8    1
     8     8     9    2
     9     9    10    1
    10    10    11    2
    11    11    12    1
    12    12    13    1
    13    13    14    2
    14    14    15    1
    15    15    16    2
    16    16    17    1
    17    17    18    2
    18    18    19    1
    19    19    20    1
    20    19    21    1
    21    19    22    1
    22    11    23    1
    23    23    24    2
    24    23    25   am
    25     7    26    1
    26    26    27    1
    27    27     2    1
    28    25     8    1
    29    18    13    1
@<TRIPOS>SUBSTRUCTURE
     1 RES1        1 GROUP             0 ****  ****    0  
@<TRIPOS>MOLECULE
ligand_31
    27    29     1     0     0
SMALL
USER_CHARGES
****
Generated from the CSD

@<TRIPOS>ATOM
     1 C1      26.1940  43.3945   2.4072   C.3       1 RES1   0.0000
     2 C2      27.3055  42.3383   2.6938   C.3       1 RES1   0.0000
     3 C3      28.3162  43.0154   3.6613   C.3       1 RES1   0.0000
     4 N4      27.7492  43.4427   4.9312   N.3       1 RES1   1.0000
     5 C5      27.9690  41.9784   1.3780   C.3       1 RES1   0.0000
     6 C6      27.0551  41.1701   0.4884   C.3       1 RES1   0.0000
     7 N7      26.5816  39.9712   1.1796   N.pl3     1 RES1   0.0000
     8 C8      26.1875  38.8643   0.4249   C.2       1 RES1   0.0000
     9 N9      27.1401  38.2591  -0.2898   N.2       1 RES1   0.0000
    10 C10     26.8379  37.1270  -0.9506   C.2       1 RES1   0.0000
    11 C11     25.5692  36.5472  -0.8378   C.2       1 RES1   0.0000
    12 S12     25.1576  34.9846  -1.5597   S.3       1 RES1   0.0000
    13 C13     26.5840  34.4215  -2.4627   C.2       1 RES1   0.0000
    14 C14     27.4037  33.4062  -1.9048   C.2       1 RES1   0.0000
    15 C15     28.5778  32.9895  -2.5635   C.2       1 RES1   0.0000
    16 C16     28.8808  33.5668  -3.7994   C.2       1 RES1   0.0000
    17 N17     28.1078  34.5211  -4.3640   N.2       1 RES1   0.0000
    18 C18     26.9732  34.9476  -3.7331   C.2       1 RES1   0.0000
    19 C19     26.1535  35.9853  -4.5051   C.3       1 RES1   0.0000
    20 F20     26.9092  36.4684  -5.4751   F         1 RES1   0.0000
    21 F21     25.0936  35.4126  -5.0837   F         1 RES1   0.0000
    22 F22     25.7568  37.0344  -3.7611   F         1 RES1   0.0000
    23 C23     24.6498  37.2558  -0.0193   C.2       1 RES1   0.0000
    24 O24     23.3868  36.8163   0.0683   O.2       1 RES1   0.0000
    25 N25     24.9471  38.4081   0.5853   N.am      1 RES1   0.0000
    26 C26     25.8535  40.2970   2.4088   C.3       1 RES1   0.0000
    27 C27     26.7397  41.1068   3.3527   C.3       1 RES1   0.0000
@<TRIPOS>BOND
     1     1     2    1
     2     2     3    1
     3     3     4    1
     4     2     5    1
     5     5     6    1
     6     6     7    1
     7     7     8    1
     8     8     9    2
     9     9    10    1
    10    10    11    2
    11    11    12    1
    12    12    13    1
    13    13    14    2
    14    14    15    1
    15    15    16    2
    16    16    17    1
    17    17    18    2
    18    18    19    1
    19    19    20    1
    20    19    21    1
    21    19    22    1
    22    11    23    1
    23    23    24    2
    24    23    25   am
    25     7    26    1
    26    26    27    1
    27    27     2    1
    28    25     8    1
    29    18    13    1
@<TRIPOS>SUBSTRUCTURE
     1 RES1        1 GROUP             0 ****  ****    0  
@<TRIPOS>MOLECULE
ligand_32
    27    29     1     0     0
SMALL
USER_CHARGES
****
Generated from the CSD

@<TRIPOS>ATOM
     1 C1      26.2108  43.4049   2.3833   C.3       1 RES1   0.0000
     2 C2      27.3070  42.3390   2.6920   C.3       1 RES1   0.0000
     3 C3      28.3100  43.0110   3.6710   C.3       1 RES1   0.0000
     4 N4      27.7286  43.4504   4.9302   N.3       1 RES1   1.0000
     5 C5      27.9864  41.9652   1.3882   C.3       1 RES1   0.0000
     6 C6      27.0776  41.1615   0.4893   C.3       1 RES1   0.0000
     7 N7      26.5816  39.9712   1.1796   N.pl3     1 RES1   0.0000
     8 C8      26.1875  38.8643   0.4249   C.2       1 RES1   0.0000
     9 N9      26.8979  37.7452   0.5904   N.2       1 RES1   0.0000
    10 C10     26.4971  36.6218  -0.0317   C.2       1 RES1   0.0000
    11 C11     25.3166  36.5997  -0.7829   C.2       1 RES1   0.0000
    12 S12     24.6593  35.1209  -1.4994   S.3       1 RES1   0.0000
    13 C13     25.8041  33.8039  -1.1497   C.2       1 RES1   0.0000
    14 C14     25.4984  32.8711  -0.1248   C.2       1 RES1   0.0000
    15 C15     26.4167  31.8599   0.2219   C.2       1 RES1   0.0000
    16 C16     27.6074  31.7733  -0.5041   C.2       1 RES1   0.0000
    17 N17     27.9159  32.6353  -1.4984   N.2       1 RES1   0.0000
    18 C18     27.0438  33.6308  -1.8390   C.2       1 RES1   0.0000
    19 C19     27.4821  34.4999  -3.0211   C.3       1 RES1   0.0000
    20 F20     28.7667  34.2815  -3.2390   F         1 RES1   0.0000
    21 F21     26.8311  34.1455  -4.1332   F         1 RES1   0.0000
    22 F22     27.3418  35.8220  -2.8111   F         1 RES1   0.0000
    23 C23     24.6218  37.8364  -0.8561   C.2       1 RES1   0.0000
    24 O24     23.5310  37.9229  -1.6300   O.2       1 RES1   0.0000
    25 N25     25.0616  38.9570  -0.2795   N.am      1 RES1   0.0000
    26 C26     25.8386  40.3111   2.3960   C.3       1 RES1   0.0000
    27 C27     26.7188  41.1168   3.3489   C.3       1 RES1   0.0000
@<TRIPOS>BOND
     1     1     2    1
     2     2     3    1
     3     3     4    1
     4     2     5    1
     5     5     6    1
     6     6     7    1
     7     7     8    1
     8     8     9    2
     9     9    10    1
    10    10    11    2
    11    11    12    1
    12    12    13    1
    13    13    14    2
    14    14    15    1
    15    15    16    2
    16    16    17    1
    17    17    18    2
    18    18    19    1
    19    19    20    1
    20    19    21    1
    21    19    22    1
    22    11    23    1
    23    23    24    2
    24    23    25   am
    25     7    26    1
    26    26    27    1
    27    27     2    1
    28    25     8    1
    29    18    13    1
@<TRIPOS>SUBSTRUCTURE
     1 RES1        1 GROUP             0 ****  ****    0  
@<TRIPOS>MOLECULE
ligand_33
    27    29     1     0     0
SMALL
USER_CHARGES
****
Generated from the CSD

@<TRIPOS>ATOM
     1 C1      28.1252  41.9455   1.4236   C.3       1 RES1   0.0000
     2 C2      27.3070  42.3390   2.6920   C.3       1 RES1   0.0000
     3 C3      28.3100  43.0110   3.6710   C.3       1 RES1   0.0000
     4 N4      27.7285  43.4507   4.9300   N.3       1 RES1   1.0000
     5 C5      26.7246  41.0737   3.2928   C.3       1 RES1   0.0000
     6 C6      25.6253  40.4962   2.4340   C.3       1 RES1   0.0000
     7 N7      24.5785  41.4883   2.1905   N.pl3     1 RES1   0.0000
     8 C8      23.2849  41.0514   1.8974   C.2       1 RES1   0.0000
     9 N9      22.8114  41.3572   0.6863   N.2       1 RES1   0.0000
    10 C10     21.6136  40.8710   0.3139   C.2       1 RES1   0.0000
    11 C11     20.9023  40.0001   1.1468   C.2       1 RES1   0.0000
    12 S12     19.3970  39.2111   0.6531   S.3       1 RES1   0.0000
    13 C13     19.0038  39.7882  -0.9838   C.2       1 RES1   0.0000
    14 C14     17.9967  40.7743  -1.1499   C.2       1 RES1   0.0000
    15 C15     17.6149  41.1997  -2.4381   C.2       1 RES1   0.0000
    16 C16     18.2895  40.6617  -3.5371   C.2       1 RES1   0.0000
    17 N17     19.2662  39.7363  -3.4077   N.2       1 RES1   0.0000
    18 C18     19.6400  39.3016  -2.1673   C.2       1 RES1   0.0000
    19 C19     20.7986  38.3005  -2.1532   C.3       1 RES1   0.0000
    20 F20     20.9537  37.8328  -3.3790   F         1 RES1   0.0000
    21 F21     21.9414  38.9074  -1.8188   F         1 RES1   0.0000
    22 F22     20.5948  37.2373  -1.3535   F         1 RES1   0.0000
    23 C23     21.5207  39.7130   2.3928   C.2       1 RES1   0.0000
    24 O24     20.8631  38.9600   3.2853   O.2       1 RES1   0.0000
    25 N25     22.6836  40.2475   2.7718   N.am      1 RES1   0.0000
    26 C26     25.0997  42.6845   1.5238   C.3       1 RES1   0.0000
    27 C27     26.2102  43.3175   2.3594   C.3       1 RES1   0.0000
@<TRIPOS>BOND
     1     1     2    1
     2     2     3    1
     3     3     4    1
     4     2     5    1
     5     5     6    1
     6     6     7    1
     7     7     8    1
     8     8     9    2
     9     9    10    1
    10    10    11    2
    11    11    12    1
    12    12    13    1
    13    13    14    2
    14    14    15    1
    15    15    16    2
    16    16    17    1
    17    17    18    2
    18    18    19    1
    19    19    20    1
    20    19    21    1
    21    19    22    1
    22    11    23    1
    23    23    24    2
    24    23    25   am
    25     7    26    1
    26    26    27    1
    27    27     2    1
    28    25     8    1
    29    18    13    1
@<TRIPOS>SUBSTRUCTURE
     1 RES1        1 GROUP             0 ****  ****    0  
@<TRIPOS>MOLECULE
ligand_34
    27    29     1     0     0
SMALL
USER_CHARGES
****
Generated from the CSD

@<TRIPOS>ATOM
     1 C1      28.1252  41.9455   1.4236   C.3       1 RES1   0.0000
     2 C2      27.3070  42.3390   2.6920   C.3       1 RES1   0.0000
     3 C3      28.3100  43.0110   3.6710   C.3       1 RES1   0.0000
     4 N4      27.7285  43.4507   4.9300   N.3       1 RES1   1.0000
     5 C5      26.7246  41.0737   3.2928   C.3       1 RES1   0.0000
     6 C6      25.6253  40.4962   2.4340   C.3       1 RES1   0.0000
     7 N7      24.5785  41.4883   2.1905   N.pl3     1 RES1   0.0000
     8 C8      23.2849  41.0514   1.8974   C.2       1 RES1   0.0000
     9 N9      23.1299  40.3621   0.7636   N.2       1 RES1   0.0000
    10 C10     21.9269  39.8279   0.4859   C.2       1 RES1   0.0000
    11 C11     20.8702  39.9264   1.3980   C.2       1 RES1   0.0000
    12 S12     19.3135  39.1194   1.1582   S.3       1 RES1   0.0000
    13 C13     19.3827  38.2815  -0.4103   C.2       1 RES1   0.0000
    14 C14     18.7320  38.8546  -1.5338   C.2       1 RES1   0.0000
    15 C15     18.7101  38.1803  -2.7711   C.2       1 RES1   0.0000
    16 C16     19.3878  36.9625  -2.8705   C.2       1 RES1   0.0000
    17 N17     20.0329  36.4029  -1.8228   N.2       1 RES1   0.0000
    18 C18     20.0528  37.0355  -0.6117   C.2       1 RES1   0.0000
    19 C19     20.8688  36.3296   0.4749   C.3       1 RES1   0.0000
    20 F20     21.0966  35.0899   0.0789   F         1 RES1   0.0000
    21 F21     22.0598  36.9169   0.6258   F         1 RES1   0.0000
    22 F22     20.2444  36.2500   1.6646   F         1 RES1   0.0000
    23 C23     21.1614  40.6465   2.5872   C.2       1 RES1   0.0000
    24 O24     20.1779  40.8641   3.4712   O.2       1 RES1   0.0000
    25 N25     22.3437  41.2191   2.8239   N.am      1 RES1   0.0000
    26 C26     25.0997  42.6845   1.5238   C.3       1 RES1   0.0000
    27 C27     26.2102  43.3175   2.3594   C.3       1 RES1   0.0000
@<TRIPOS>BOND
     1     1     2    1
     2     2     3    1
     3     3     4    1
     4     2     5    1
     5     5     6    1
     6     6     7    1
     7     7     8    1
     8     8     9    2
     9     9    10    1
    10    10    11    2
    11    11    12    1
    12    12    13    1
    13    13    14    2
    14    14    15    1
    15    15    16    2
    16    16    17    1
    17    17    18    2
    18    18    19    1
    19    19    20    1
    20    19    21    1
    21    19    22    1
    22    11    23    1
    23    23    24    2
    24    23    25   am
    25     7    26    1
    26    26    27    1
    27    27     2    1
    28    25     8    1
    29    18    13    1
@<TRIPOS>SUBSTRUCTURE
     1 RES1        1 GROUP             0 ****  ****    0  
@<TRIPOS>MOLECULE
ligand_35
    27    29     1     0     0
SMALL
USER_CHARGES
****
Generated from the CSD

@<TRIPOS>ATOM
     1 C1      28.1179  41.9769   1.4092   C.3       1 RES1   0.0000
     2 C2      27.3065  42.3413   2.6906   C.3       1 RES1   0.0000
     3 C3      28.3131  42.9983   3.6761   C.3       1 RES1   0.0000
     4 N4      27.7374  43.4137   4.9460   N.3       1 RES1   1.0000
     5 C5      26.7339  41.0617   3.2700   C.3       1 RES1   0.0000
     6 C6      25.6313  40.4963   2.4071   C.3       1 RES1   0.0000
     7 N7      24.5785  41.4883   2.1905   N.pl3     1 RES1   0.0000
     8 C8      23.2849  41.0514   1.8974   C.2       1 RES1   0.0000
     9 N9      22.6521  40.3720   2.8579   N.2       1 RES1   0.0000
    10 C10     21.3677  40.0199   2.6679   C.2       1 RES1   0.0000
    11 C11     20.6774  40.4174   1.5174   C.2       1 RES1   0.0000
    12 S12     18.9501  40.1147   1.2787   S.3       1 RES1   0.0000
    13 C13     18.3667  39.2071   2.6940   C.2       1 RES1   0.0000
    14 C14     18.1515  37.8087   2.5827   C.2       1 RES1   0.0000
    15 C15     17.6239  37.0758   3.6646   C.2       1 RES1   0.0000
    16 C16     17.3688  37.7546   4.8589   C.2       1 RES1   0.0000
    17 N17     17.5830  39.0817   4.9999   N.2       1 RES1   0.0000
    18 C18     18.0810  39.8112   3.9572   C.2       1 RES1   0.0000
    19 C19     18.3369  41.2893   4.2642   C.3       1 RES1   0.0000
    20 F20     17.7002  41.5943   5.3809   F         1 RES1   0.0000
    21 F21     19.6372  41.5065   4.4838   F         1 RES1   0.0000
    22 F22     17.8865  42.1321   3.3163   F         1 RES1   0.0000
    23 C23     21.4384  41.1703   0.5839   C.2       1 RES1   0.0000
    24 O24     20.8779  41.5120  -0.5846   O.2       1 RES1   0.0000
    25 N25     22.7284  41.4642   0.7606   N.am      1 RES1   0.0000
    26 C26     25.0898  42.6999   1.5443   C.3       1 RES1   0.0000
    27 C27     26.2031  43.3212   2.3850   C.3       1 RES1   0.0000
@<TRIPOS>BOND
     1     1     2    1
     2     2     3    1
     3     3     4    1
     4     2     5    1
     5     5     6    1
     6     6     7    1
     7     7     8    1
     8     8     9    2
     9     9    10    1
    10    10    11    2
    11    11    12    1
    12    12    13    1
    13    13    14    2
    14    14    15    1
    15    15    16    2
    16    16    17    1
    17    17    18    2
    18    18    19    1
    19    19    20    1
    20    19    21    1
    21    19    22    1
    22    11    23    1
    23    23    24    2
    24    23    25   am
    25     7    26    1
    26    26    27    1
    27    27     2    1
    28    25     8    1
    29    18    13    1
@<TRIPOS>SUBSTRUCTURE
     1 RES1        1 GROUP             0 ****  ****    0  
@<TRIPOS>MOLECULE
ligand_36
    27    29     1     0     0
SMALL
USER_CHARGES
****
Generated from the CSD

@<TRIPOS>ATOM
     1 C1      28.1252  41.9455   1.4236   C.3       1 RES1   0.0000
     2 C2      27.3070  42.3390   2.6920   C.3       1 RES1   0.0000
     3 C3      28.3100  43.0110   3.6710   C.3       1 RES1   0.0000
     4 N4      27.7285  43.4507   4.9300   N.3       1 RES1   1.0000
     5 C5      26.7246  41.0737   3.2928   C.3       1 RES1   0.0000
     6 C6      25.6253  40.4962   2.4340   C.3       1 RES1   0.0000
     7 N7      24.5785  41.4883   2.1905   N.pl3     1 RES1   0.0000
     8 C8      23.2849  41.0514   1.8974   C.2       1 RES1   0.0000
     9 N9      22.3336  41.3671   2.7805   N.2       1 RES1   0.0000
    10 C10     21.0544  41.0629   2.4959   C.2       1 RES1   0.0000
    11 C11     20.7094  40.4911   1.2662   C.2       1 RES1   0.0000
    12 S12     19.0335  40.2063   0.7736   S.3       1 RES1   0.0000
    13 C13     17.9876  40.7143   2.1209   C.2       1 RES1   0.0000
    14 C14     17.4169  39.7287   2.9676   C.2       1 RES1   0.0000
    15 C15     16.5293  40.0959   3.9989   C.2       1 RES1   0.0000
    16 C16     16.2702  41.4551   4.1931   C.2       1 RES1   0.0000
    17 N17     16.8152  42.4166   3.4150   N.2       1 RES1   0.0000
    18 C18     17.6671  42.0784   2.4014   C.2       1 RES1   0.0000
    19 C19     18.2647  43.2618   1.6351   C.3       1 RES1   0.0000
    20 F20     17.5554  44.3388   1.9220   F         1 RES1   0.0000
    21 F21     19.5168  43.4995   2.0377   F         1 RES1   0.0000
    22 F22     18.2341  43.1201   0.2970   F         1 RES1   0.0000
    23 C23     21.7977  40.2369   0.3895   C.2       1 RES1   0.0000
    24 O24     21.5631  39.6079  -0.7705   O.2       1 RES1   0.0000
    25 N25     23.0683  40.4927   0.7086   N.am      1 RES1   0.0000
    26 C26     25.0997  42.6845   1.5238   C.3       1 RES1   0.0000
    27 C27     26.2102  43.3175   2.3594   C.3       1 RES1   0.0000
@<TRIPOS>BOND
     1     1     2    1
     2     2     3    1
     3     3     4    1
     4     2     5    1
     5     5     6    1
     6     6     7    1
     7     7     8    1
     8     8     9    2
     9     9    10    1
    10    10    11    2
    11    11    12    1
    12    12    13    1
    13    13    14    2
    14    14    15    1
    15    15    16    2
    16    16    17    1
    17    17    18    2
    18    18    19    1
    19    19    20    1
    20    19    21    1
    21    19    22    1
    22    11    23    1
    23    23    24    2
    24    23    25   am
    25     7    26    1
    26    26    27    1
    27    27     2    1
    28    25     8    1
    29    18    13    1
@<TRIPOS>SUBSTRUCTURE
     1 RES1        1 GROUP             0 ****  ****    0  
@<TRIPOS>MOLECULE
ligand_37
    27    29     1     0     0
SMALL
USER_CHARGES
****
Generated from the CSD

@<TRIPOS>ATOM
     1 C1      26.7313  41.0947   3.4358   C.3       1 RES1   0.0000
     2 C2      27.3070  42.3390   2.6920   C.3       1 RES1   0.0000
     3 C3      28.3100  43.0110   3.6710   C.3       1 RES1   0.0000
     4 N4      27.7277  43.4542   4.9285   N.3       1 RES1   1.0000
     5 C5      26.1561  43.2721   2.3663   C.3       1 RES1   0.0000
     6 C6      25.2604  42.7077   1.2897   C.3       1 RES1   0.0000
     7 N7      26.0291  42.3872   0.0873   N.pl3     1 RES1   0.0000
     8 C8      25.3778  42.3640  -1.1479   C.2       1 RES1   0.0000
     9 N9      25.3287  41.1854  -1.7749   N.2       1 RES1   0.0000
    10 C10     24.6232  41.0841  -2.9159   C.2       1 RES1   0.0000
    11 C11     23.8911  42.1714  -3.4057   C.2       1 RES1   0.0000
    12 S12     22.8269  42.0583  -4.8153   S.3       1 RES1   0.0000
    13 C13     22.9499  40.3984  -5.4452   C.2       1 RES1   0.0000
    14 C14     23.7348  40.1501  -6.6012   C.2       1 RES1   0.0000
    15 C15     23.7948  38.8593  -7.1637   C.2       1 RES1   0.0000
    16 C16     23.1033  37.8280  -6.5229   C.2       1 RES1   0.0000
    17 N17     22.3645  38.0314  -5.4095   N.2       1 RES1   0.0000
    18 C18     22.2833  39.2791  -4.8580   C.2       1 RES1   0.0000
    19 C19     21.4673  39.3643  -3.5651   C.3       1 RES1   0.0000
    20 F20     20.7469  38.2619  -3.4593   F         1 RES1   0.0000
    21 F21     22.2744  39.4076  -2.5008   F         1 RES1   0.0000
    22 F22     20.6058  40.3978  -3.5277   F         1 RES1   0.0000
    23 C23     23.9845  43.3612  -2.6355   C.2       1 RES1   0.0000
    24 O24     23.3866  44.4734  -3.0846   O.2       1 RES1   0.0000
    25 N25     24.7338  43.4627  -1.5355   N.am      1 RES1   0.0000
    26 C26     27.0903  41.4135   0.3569   C.3       1 RES1   0.0000
    27 C27     28.0353  41.9417   1.4339   C.3       1 RES1   0.0000
@<TRIPOS>BOND
     1     1     2    1
     2     2     3    1
     3     3     4    1
     4     2     5    1
     5     5     6    1
     6     6     7    1
     7     7     8    1
     8     8     9    2
     9     9    10    1
    10    10    11    2
    11    11    12    1
    12    12    13    1
    13    13    14    2
    14    14    15    1
    15    15    16    2
    16    16    17    1
    17    17    18    2
    18    18    19    1
    19    19    20    1
    20    19    21    1
    21    19    22    1
    22    11    23    1
    23    23    24    2
    24    23    25   am
    25     7    26    1
    26    26    27    1
    27    27     2    1
    28    25     8    1
    29    18    13    1
@<TRIPOS>SUBSTRUCTURE
     1 RES1        1 GROUP             0 ****  ****    0  
@<TRIPOS>MOLECULE
ligand_38
    27    29     1     0     0
SMALL
USER_CHARGES
****
Generated from the CSD

@<TRIPOS>ATOM
     1 C1      26.7313  41.0947   3.4358   C.3       1 RES1   0.0000
     2 C2      27.3070  42.3390   2.6920   C.3       1 RES1   0.0000
     3 C3      28.3100  43.0110   3.6710   C.3       1 RES1   0.0000
     4 N4      27.7277  43.4542   4.9285   N.3       1 RES1   1.0000
     5 C5      26.1561  43.2721   2.3663   C.3       1 RES1   0.0000
     6 C6      25.2604  42.7077   1.2897   C.3       1 RES1   0.0000
     7 N7      26.0291  42.3872   0.0873   N.pl3     1 RES1   0.0000
     8 C8      25.3778  42.3640  -1.1479   C.2       1 RES1   0.0000
     9 N9      24.4274  41.4384  -1.3044   N.2       1 RES1   0.0000
    10 C10     23.6973  41.4399  -2.4344   C.2       1 RES1   0.0000
    11 C11     23.8752  42.4347  -3.4023   C.2       1 RES1   0.0000
    12 S12     22.8469  42.5776  -4.8356   S.3       1 RES1   0.0000
    13 C13     21.6796  41.2351  -4.7911   C.2       1 RES1   0.0000
    14 C14     21.8865  40.1061  -5.6258   C.2       1 RES1   0.0000
    15 C15     20.9431  39.0598  -5.6639   C.2       1 RES1   0.0000
    16 C16     19.8309  39.1437  -4.8223   C.2       1 RES1   0.0000
    17 N17     19.6186  40.1971  -4.0025   N.2       1 RES1   0.0000
    18 C18     20.5153  41.2275  -3.9625   C.2       1 RES1   0.0000
    19 C19     20.1924  42.3287  -2.9487   C.3       1 RES1   0.0000
    20 F20     18.9324  42.1894  -2.5765   F         1 RES1   0.0000
    21 F21     20.9418  42.1924  -1.8506   F         1 RES1   0.0000
    22 F22     20.3188  43.5769  -3.4362   F         1 RES1   0.0000
    23 C23     24.8853  43.3898  -3.1110   C.2       1 RES1   0.0000
    24 O24     25.1804  44.3220  -4.0275   O.2       1 RES1   0.0000
    25 N25     25.6402  43.3429  -2.0112   N.am      1 RES1   0.0000
    26 C26     27.0903  41.4135   0.3569   C.3       1 RES1   0.0000
    27 C27     28.0353  41.9417   1.4339   C.3       1 RES1   0.0000
@<TRIPOS>BOND
     1     1     2    1
     2     2     3    1
     3     3     4    1
     4     2     5    1
     5     5     6    1
     6     6     7    1
     7     7     8    1
     8     8     9    2
     9     9    10    1
    10    10    11    2
    11    11    12    1
    12    12    13    1
    13    13    14    2
    14    14    15    1
    15    15    16    2
    16    16    17    1
    17    17    18    2
    18    18    19    1
    19    19    20    1
    20    19    21    1
    21    19    22    1
    22    11    23    1
    23    23    24    2
    24    23    25   am
    25     7    26    1
    26    26    27    1
    27    27     2    1
    28    25     8    1
    29    18    13    1
@<TRIPOS>SUBSTRUCTURE
     1 RES1        1 GROUP             0 ****  ****    0  
@<TRIPOS>MOLECULE
ligand_39
    27    29     1     0     0
SMALL
USER_CHARGES
****
Generated from the CSD

@<TRIPOS>ATOM
     1 C1      26.7570  41.0749   3.4226   C.3       1 RES1   0.0000
     2 C2      27.3088  42.3372   2.6911   C.3       1 RES1   0.0000
     3 C3      28.2995  43.0182   3.6764   C.3       1 RES1   0.0000
     4 N4      27.7096  43.4374   4.9386   N.3       1 RES1   1.0000
     5 C5      26.1404  43.2516   2.3750   C.3       1 RES1   0.0000
     6 C6      25.2551  42.6812   1.2930   C.3       1 RES1   0.0000
     7 N7      26.0291  42.3872   0.0873   N.pl3     1 RES1   0.0000
     8 C8      25.3778  42.3640  -1.1479   C.2       1 RES1   0.0000
     9 N9      24.8700  43.5226  -1.5771   N.2       1 RES1   0.0000
    10 C10     24.3259  43.5793  -2.8061   C.2       1 RES1   0.0000
    11 C11     24.3525  42.4668  -3.6545   C.2       1 RES1   0.0000
    12 S12     23.7893  42.5218  -5.3315   S.3       1 RES1   0.0000
    13 C13     23.1747  44.1642  -5.6345   C.2       1 RES1   0.0000
    14 C14     21.7738  44.3909  -5.6466   C.2       1 RES1   0.0000
    15 C15     21.2561  45.6654  -5.9528   C.2       1 RES1   0.0000
    16 C16     22.1595  46.7040  -6.1923   C.2       1 RES1   0.0000
    17 N17     23.4986  46.5217  -6.1676   N.2       1 RES1   0.0000
    18 C18     24.0186  45.2897  -5.8864   C.2       1 RES1   0.0000
    19 C19     25.5475  45.2295  -5.8275   C.3       1 RES1   0.0000
    20 F20     26.0249  46.3238  -6.3933   F         1 RES1   0.0000
    21 F21     25.9703  45.2286  -4.5597   F         1 RES1   0.0000
    22 F22     26.0809  44.1850  -6.4879   F         1 RES1   0.0000
    23 C23     24.9535  41.3019  -3.1076   C.2       1 RES1   0.0000
    24 O24     24.9381  40.1677  -3.8216   O.2       1 RES1   0.0000
    25 N25     25.4391  41.2444  -1.8656   N.am      1 RES1   0.0000
    26 C26     27.1086  41.4310   0.3469   C.3       1 RES1   0.0000
    27 C27     28.0440  41.9662   1.4289   C.3       1 RES1   0.0000
@<TRIPOS>BOND
     1     1     2    1
     2     2     3    1
     3     3     4    1
     4     2     5    1
     5     5     6    1
     6     6     7    1
     7     7     8    1
     8     8     9    2
     9     9    10    1
    10    10    11    2
    11    11    12    1
    12    12    13    1
    13    13    14    2
    14    14    15    1
    15    15    16    2
    16    16    17    1
    17    17    18    2
    18    18    19    1
    19    19    20    1
    20    19    21    1
    21    19    22    1
    22    11    23    1
    23    23    24    2
    24    23    25   am
    25     7    26    1
    26    26    27    1
    27    27     2    1
    28    25     8    1
    29    18    13    1
@<TRIPOS>SUBSTRUCTURE
     1 RES1        1 GROUP             0 ****  ****    0  
@<TRIPOS>MOLECULE
ligand_40
    27    29     1     0     0
SMALL
USER_CHARGES
****
Generated from the CSD

@<TRIPOS>ATOM
     1 C1      26.7313  41.0947   3.4358   C.3       1 RES1   0.0000
     2 C2      27.3070  42.3390   2.6920   C.3       1 RES1   0.0000
     3 C3      28.3100  43.0110   3.6710   C.3       1 RES1   0.0000
     4 N4      27.7277  43.4542   4.9285   N.3       1 RES1   1.0000
     5 C5      26.1561  43.2721   2.3663   C.3       1 RES1   0.0000
     6 C6      25.2604  42.7077   1.2897   C.3       1 RES1   0.0000
     7 N7      26.0291  42.3872   0.0873   N.pl3     1 RES1   0.0000
     8 C8      25.3778  42.3640  -1.1479   C.2       1 RES1   0.0000
     9 N9      25.7713  43.2697  -2.0475   N.2       1 RES1   0.0000
    10 C10     25.2519  43.2236  -3.2876   C.2       1 RES1   0.0000
    11 C11     24.3684  42.2035  -3.6580   C.2       1 RES1   0.0000
    12 S12     23.7693  42.0025  -5.3111   S.3       1 RES1   0.0000
    13 C13     24.4448  43.3275  -6.2885   C.2       1 RES1   0.0000
    14 C14     23.6218  44.4344  -6.6223   C.2       1 RES1   0.0000
    15 C15     24.1072  45.4644  -7.4527   C.2       1 RES1   0.0000
    16 C16     25.4312  45.3881  -7.8926   C.2       1 RES1   0.0000
    17 N17     26.2438  44.3561  -7.5740   N.2       1 RES1   0.0000
    18 C18     25.7860  43.3413  -6.7814   C.2       1 RES1   0.0000
    19 C19     26.8219  42.2656  -6.4430   C.3       1 RES1   0.0000
    20 F20     27.8387  42.3963  -7.2763   F         1 RES1   0.0000
    21 F21     27.3022  42.4459  -5.2089   F         1 RES1   0.0000
    22 F22     26.3677  41.0057  -6.5771   F         1 RES1   0.0000
    23 C23     24.0527  41.2732  -2.6322   C.2       1 RES1   0.0000
    24 O24     23.1444  40.3191  -2.8787   O.2       1 RES1   0.0000
    25 N25     24.5327  41.3643  -1.3900   N.am      1 RES1   0.0000
    26 C26     27.0903  41.4135   0.3569   C.3       1 RES1   0.0000
    27 C27     28.0353  41.9417   1.4339   C.3       1 RES1   0.0000
@<TRIPOS>BOND
     1     1     2    1
     2     2     3    1
     3     3     4    1
     4     2     5    1
     5     5     6    1
     6     6     7    1
     7     7     8    1
     8     8     9    2
     9     9    10    1
    10    10    11    2
    11    11    12    1
    12    12    13    1
    13    13    14    2
    14    14    15    1
    15    15    16    2
    16    16    17    1
    17    17    18    2
    18    18    19    1
    19    19    20    1
    20    19    21    1
    21    19    22    1
    22    11    23    1
    23    23    24    2
    24    23    25   am
    25     7    26    1
    26    26    27    1
    27    27     2    1
    28    25     8    1
    29    18    13    1
@<TRIPOS>SUBSTRUCTURE
     1 RES1        1 GROUP             0 ****  ****    0  
@<TRIPOS>MOLECULE
ligand_41
    27    29     1     0     0
SMALL
USER_CHARGES
****
Generated from the CSD

@<TRIPOS>ATOM
     1 C1      26.2108  43.4049   2.3833   C.3       1 RES1   0.0000
     2 C2      27.3070  42.3390   2.6920   C.3       1 RES1   0.0000
     3 C3      28.3100  43.0110   3.6710   C.3       1 RES1   0.0000
     4 N4      27.7283  43.4518   4.9295   N.3       1 RES1   1.0000
     5 C5      27.9864  41.9652   1.3882   C.3       1 RES1   0.0000
     6 C6      27.0776  41.1615   0.4893   C.3       1 RES1   0.0000
     7 N7      26.5816  39.9712   1.1796   N.pl3     1 RES1   0.0000
     8 C8      26.1875  38.8643   0.4249   C.2       1 RES1   0.0000
     9 N9      24.8979  38.5228   0.4942   N.2       1 RES1   0.0000
    10 C10     24.4439  37.5310  -0.2933   C.2       1 RES1   0.0000
    11 C11     25.2855  36.9114  -1.2238   C.2       1 RES1   0.0000
    12 S12     24.7124  35.7080  -2.3880   S.3       1 RES1   0.0000
    13 C13     22.9795  35.4476  -2.0772   C.2       1 RES1   0.0000
    14 C14     22.5660  34.2843  -1.3773   C.2       1 RES1   0.0000
    15 C15     21.1969  34.0161  -1.1777   C.2       1 RES1   0.0000
    16 C16     20.2674  34.9502  -1.6422   C.2       1 RES1   0.0000
    17 N17     20.6333  36.0763  -2.2940   N.2       1 RES1   0.0000
    18 C18     21.9556  36.3460  -2.5091   C.2       1 RES1   0.0000
    19 C19     22.2402  37.6815  -3.2020   C.3       1 RES1   0.0000
    20 F20     21.1128  38.1175  -3.7351   F         1 RES1   0.0000
    21 F21     22.6329  38.5991  -2.3131   F         1 RES1   0.0000
    22 F22     23.1379  37.6002  -4.2015   F         1 RES1   0.0000
    23 C23     26.6252  37.3832  -1.2376   C.2       1 RES1   0.0000
    24 O24     27.5172  36.7805  -2.0359   O.2       1 RES1   0.0000
    25 N25     27.0752  38.3298  -0.4110   N.am      1 RES1   0.0000
    26 C26     25.8386  40.3111   2.3960   C.3       1 RES1   0.0000
    27 C27     26.7188  41.1168   3.3489   C.3       1 RES1   0.0000
@<TRIPOS>BOND
     1     1     2    1
     2     2     3    1
     3     3     4    1
     4     2     5    1
     5     5     6    1
     6     6     7    1
     7     7     8    1
     8     8     9    2
     9     9    10    1
    10    10    11    2
    11    11    12    1
    12    12    13    1
    13    13    14    2
    14    14    15    1
    15    15    16    2
    16    16    17    1
    17    17    18    2
    18    18    19    1
    19    19    20    1
    20    19    21    1
    21    19    22    1
    22    11    23    1
    23    23    24    2
    24    23    25   am
    25     7    26    1
    26    26    27    1
    27    27     2    1
    28    25     8    1
    29    18    13    1
@<TRIPOS>SUBSTRUCTURE
     1 RES1        1 GROUP             0 ****  ****    0  
@<TRIPOS>MOLECULE
ligand_42
    27    29     1     0     0
SMALL
USER_CHARGES
****
Generated from the CSD

@<TRIPOS>ATOM
     1 C1      26.2108  43.4049   2.3833   C.3       1 RES1   0.0000
     2 C2      27.3070  42.3390   2.6920   C.3       1 RES1   0.0000
     3 C3      28.3100  43.0110   3.6710   C.3       1 RES1   0.0000
     4 N4      27.7283  43.4518   4.9295   N.3       1 RES1   1.0000
     5 C5      27.9864  41.9652   1.3882   C.3       1 RES1   0.0000
     6 C6      27.0776  41.1615   0.4893   C.3       1 RES1   0.0000
     7 N7      26.5816  39.9712   1.1796   N.pl3     1 RES1   0.0000
     8 C8      26.1875  38.8643   0.4249   C.2       1 RES1   0.0000
     9 N9      25.1401  39.0368  -0.3861   N.2       1 RES1   0.0000
    10 C10     24.7847  38.0363  -1.2122   C.2       1 RES1   0.0000
    11 C11     25.5382  36.8589  -1.2787   C.2       1 RES1   0.0000
    12 S12     25.2107  35.5717  -2.4483   S.3       1 RES1   0.0000
    13 C13     23.7816  36.0578  -3.3909   C.2       1 RES1   0.0000
    14 C14     22.5228  35.4721  -3.0969   C.2       1 RES1   0.0000
    15 C15     21.3877  35.7849  -3.8714   C.2       1 RES1   0.0000
    16 C16     21.5280  36.7217  -4.8985   C.2       1 RES1   0.0000
    17 N17     22.7098  37.3103  -5.1880   N.2       1 RES1   0.0000
    18 C18     23.8242  37.0088  -4.4567   C.2       1 RES1   0.0000
    19 C19     25.0839  37.7886  -4.8438   C.3       1 RES1   0.0000
    20 F20     24.8801  38.3392  -6.0273   F         1 RES1   0.0000
    21 F21     25.3041  38.7856  -3.9814   F         1 RES1   0.0000
    22 F22     26.1881  37.0269  -4.9533   F         1 RES1   0.0000
    23 C23     26.6532  36.8026  -0.4007   C.2       1 RES1   0.0000
    24 O24     27.3729  35.6738  -0.3376   O.2       1 RES1   0.0000
    25 N25     26.9607  37.7809   0.4537   N.am      1 RES1   0.0000
    26 C26     25.8386  40.3111   2.3960   C.3       1 RES1   0.0000
    27 C27     26.7188  41.1168   3.3489   C.3       1 RES1   0.0000
@<TRIPOS>BOND
     1     1     2    1
     2     2     3    1
     3     3     4    1
     4     2     5    1
     5     5     6    1
     6     6     7    1
     7     7     8    1
     8     8     9    2
     9     9    10    1
    10    10    11    2
    11    11    12    1
    12    12    13    1
    13    13    14    2
    14    14    15    1
    15    15    16    2
    16    16    17    1
    17    17    18    2
    18    18    19    1
    19    19    20    1
    20    19    21    1
    21    19    22    1
    22    11    23    1
    23    23    24    2
    24    23    25   am
    25     7    26    1
    26    26    27    1
    27    27     2    1
    28    25     8    1
    29    18    13    1
@<TRIPOS>SUBSTRUCTURE
     1 RES1        1 GROUP             0 ****  ****    0  
@<TRIPOS>MOLECULE
ligand_43
    27    29     1     0     0
SMALL
USER_CHARGES
****
Generated from the CSD

@<TRIPOS>ATOM
     1 C1      26.1919  43.3932   2.4103   C.3       1 RES1   0.0000
     2 C2      27.3053  42.3382   2.6940   C.3       1 RES1   0.0000
     3 C3      28.3169  43.0160   3.6600   C.3       1 RES1   0.0000
     4 N4      27.7515  43.4431   4.9306   N.3       1 RES1   1.0000
     5 C5      27.9668  41.9800   1.3767   C.3       1 RES1   0.0000
     6 C6      27.0522  41.1712   0.4884   C.3       1 RES1   0.0000
     7 N7      26.5816  39.9712   1.1796   N.pl3     1 RES1   0.0000
     8 C8      26.1875  38.8643   0.4249   C.2       1 RES1   0.0000
     9 N9      27.1401  38.2591  -0.2898   N.2       1 RES1   0.0000
    10 C10     26.8379  37.1270  -0.9506   C.2       1 RES1   0.0000
    11 C11     25.5692  36.5472  -0.8378   C.2       1 RES1   0.0000
    12 S12     25.1576  34.9846  -1.5597   S.3       1 RES1   0.0000
    13 C13     26.5929  34.4088  -2.4403   C.2       1 RES1   0.0000
    14 C14     26.6341  34.5252  -3.8541   C.2       1 RES1   0.0000
    15 C15     27.7261  34.0149  -4.5843   C.2       1 RES1   0.0000
    16 C16     28.7834  33.4404  -3.8742   C.2       1 RES1   0.0000
    17 N17     28.7804  33.3343  -2.5267   N.2       1 RES1   0.0000
    18 C18     27.7237  33.8108  -1.8031   C.2       1 RES1   0.0000
    19 C19     27.8700  33.6868  -0.2839   C.3       1 RES1   0.0000
    20 F20     28.8512  32.8386  -0.0325   F         1 RES1   0.0000
    21 F21     28.2200  34.8597   0.2528   F         1 RES1   0.0000
    22 F22     26.7743  33.2097   0.3353   F         1 RES1   0.0000
    23 C23     24.6498  37.2558  -0.0193   C.2       1 RES1   0.0000
    24 O24     23.3868  36.8163   0.0683   O.2       1 RES1   0.0000
    25 N25     24.9471  38.4081   0.5853   N.am      1 RES1   0.0000
    26 C26     25.8554  40.2953   2.4104   C.3       1 RES1   0.0000
    27 C27     26.7424  41.1055   3.3532   C.3       1 RES1   0.0000
@<TRIPOS>BOND
     1     1     2    1
     2     2     3    1
     3     3     4    1
     4     2     5    1
     5     5     6    1
     6     6     7    1
     7     7     8    1
     8     8     9    2
     9     9    10    1
    10    10    11    2
    11    11    12    1
    12    12    13    1
    13    13    14    2
    14    14    15    1
    15    15    16    2
    16    16    17    1
    17    17    18    2
    18    18    19    1
    19    19    20    1
    20    19    21    1
    21    19    22    1
    22    11    23    1
    23    23    24    2
    24    23    25   am
    25     7    26    1
    26    26    27    1
    27    27     2    1
    28    25     8    1
    29    18    13    1
@<TRIPOS>SUBSTRUCTURE
     1 RES1        1 GROUP             0 ****  ****    0  
@<TRIPOS>MOLECULE
ligand_44
    27    29     1     0     0
SMALL
USER_CHARGES
****
Generated from the CSD

@<TRIPOS>ATOM
     1 C1      26.2108  43.4049   2.3833   C.3       1 RES1   0.0000
     2 C2      27.3070  42.3390   2.6920   C.3       1 RES1   0.0000
     3 C3      28.3100  43.0110   3.6710   C.3       1 RES1   0.0000
     4 N4      27.7283  43.4518   4.9295   N.3       1 RES1   1.0000
     5 C5      27.9864  41.9652   1.3882   C.3       1 RES1   0.0000
     6 C6      27.0776  41.1615   0.4893   C.3       1 RES1   0.0000
     7 N7      26.5816  39.9712   1.1796   N.pl3     1 RES1   0.0000
     8 C8      26.1875  38.8643   0.4249   C.2       1 RES1   0.0000
     9 N9      26.8979  37.7452   0.5904   N.2       1 RES1   0.0000
    10 C10     26.4971  36.6218  -0.0317   C.2       1 RES1   0.0000
    11 C11     25.3166  36.5997  -0.7829   C.2       1 RES1   0.0000
    12 S12     24.6593  35.1209  -1.4994   S.3       1 RES1   0.0000
    13 C13     25.7908  33.7987  -1.1268   C.2       1 RES1   0.0000
    14 C14     26.6768  33.3373  -2.1349   C.2       1 RES1   0.0000
    15 C15     27.5347  32.2461  -1.8911   C.2       1 RES1   0.0000
    16 C16     27.5226  31.6692  -0.6185   C.2       1 RES1   0.0000
    17 N17     26.7040  32.1009   0.3666   N.2       1 RES1   0.0000
    18 C18     25.8553  33.1486   0.1441   C.2       1 RES1   0.0000
    19 C19     25.0270  33.5806   1.3574   C.3       1 RES1   0.0000
    20 F20     25.0836  32.6167   2.2591   F         1 RES1   0.0000
    21 F21     25.5509  34.6737   1.9202   F         1 RES1   0.0000
    22 F22     23.7245  33.7853   1.0872   F         1 RES1   0.0000
    23 C23     24.6218  37.8364  -0.8561   C.2       1 RES1   0.0000
    24 O24     23.5310  37.9229  -1.6300   O.2       1 RES1   0.0000
    25 N25     25.0616  38.9570  -0.2795   N.am      1 RES1   0.0000
    26 C26     25.8386  40.3111   2.3960   C.3       1 RES1   0.0000
    27 C27     26.7188  41.1168   3.3489   C.3       1 RES1   0.0000
@<TRIPOS>BOND
     1     1     2    1
     2     2     3    1
     3     3     4    1
     4     2     5    1
     5     5     6    1
     6     6     7    1
     7     7     8    1
     8     8     9    2
     9     9    10    1
    10    10    11    2
    11    11    12    1
    12    12    13    1
    13    13    14    2
    14    14    15    1
    15    15    16    2
    16    16    17    1
    17    17    18    2
    18    18    19    1
    19    19    20    1
    20    19    21    1
    21    19    22    1
    22    11    23    1
    23    23    24    2
    24    23    25   am
    25     7    26    1
    26    26    27    1
    27    27     2    1
    28    25     8    1
    29    18    13    1
@<TRIPOS>SUBSTRUCTURE
     1 RES1        1 GROUP             0 ****  ****    0  
@<TRIPOS>MOLECULE
ligand_45
    27    29     1     0     0
SMALL
USER_CHARGES
****
Generated from the CSD

@<TRIPOS>ATOM
     1 C1      28.0977  41.7267   1.4874   C.3       1 RES1   0.0000
     2 C2      27.3418  42.0367   2.8161   C.3       1 RES1   0.0000
     3 C3      28.3701  42.5110   3.8808   C.3       1 RES1   0.0000
     4 N4      27.7963  42.8362   5.1776   N.3       1 RES1   1.0000
     5 C5      26.5658  40.8011   3.2538   C.3       1 RES1   0.0000
     6 C6      25.5075  40.4007   2.2354   C.3       1 RES1   0.0000
     7 N7      24.6083  41.5069   1.8561   N.pl3     1 RES1   0.0000
     8 C8      23.4025  41.6514   2.5456   C.2       1 RES1   0.0000
     9 N9      22.5442  42.5549   2.0646   N.2       1 RES1   0.0000
    10 C10     21.3265  42.6598   2.6267   C.2       1 RES1   0.0000
    11 C11     20.9318  41.7916   3.6508   C.2       1 RES1   0.0000
    12 S12     19.2961  41.7810   4.3264   S.3       1 RES1   0.0000
    13 C13     18.3818  43.0847   3.5316   C.2       1 RES1   0.0000
    14 C14     17.4456  42.7580   2.5164   C.2       1 RES1   0.0000
    15 C15     16.7584  43.7730   1.8209   C.2       1 RES1   0.0000
    16 C16     16.9879  45.0997   2.1943   C.2       1 RES1   0.0000
    17 N17     17.8585  45.4390   3.1709   N.2       1 RES1   0.0000
    18 C18     18.5443  44.4691   3.8464   C.2       1 RES1   0.0000
    19 C19     19.4512  44.9796   4.9697   C.3       1 RES1   0.0000
    20 F20     19.6046  46.2827   4.8152   F         1 RES1   0.0000
    21 F21     18.8758  44.7923   6.1614   F         1 RES1   0.0000
    22 F22     20.6839  44.4392   4.9674   F         1 RES1   0.0000
    23 C23     21.9112  40.8451   4.0538   C.2       1 RES1   0.0000
    24 O24     21.6451  40.0372   5.0895   O.2       1 RES1   0.0000
    25 N25     23.1354  40.7898   3.5247   N.am      1 RES1   0.0000
    26 C26     25.3422  42.6888   1.3991   C.3       1 RES1   0.0000
    27 C27     26.3584  43.1422   2.4400   C.3       1 RES1   0.0000
@<TRIPOS>BOND
     1     1     2    1
     2     2     3    1
     3     3     4    1
     4     2     5    1
     5     5     6    1
     6     6     7    1
     7     7     8    1
     8     8     9    2
     9     9    10    1
    10    10    11    2
    11    11    12    1
    12    12    13    1
    13    13    14    2
    14    14    15    1
    15    15    16    2
    16    16    17    1
    17    17    18    2
    18    18    19    1
    19    19    20    1
    20    19    21    1
    21    19    22    1
    22    11    23    1
    23    23    24    2
    24    23    25   am
    25     7    26    1
    26    26    27    1
    27    27     2    1
    28    25     8    1
    29    18    13    1
@<TRIPOS>SUBSTRUCTURE
     1 RES1        1 GROUP             0 ****  ****    0  
@<TRIPOS>MOLECULE
ligand_46
    27    29     1     0     0
SMALL
USER_CHARGES
****
Generated from the CSD

@<TRIPOS>ATOM
     1 C1      26.5317  41.2081   3.4478   C.3       1 RES1   0.0000
     2 C2      27.0487  42.5213   2.7836   C.3       1 RES1   0.0000
     3 C3      27.8842  43.3166   3.8255   C.3       1 RES1   0.0000
     4 N4      27.1544  43.7016   5.0237   N.3       1 RES1   1.0000
     5 C5      25.8639  43.3143   2.2473   C.3       1 RES1   0.0000
     6 C6      25.1068  42.5514   1.1691   C.3       1 RES1   0.0000
     7 N7      25.9721  42.0559   0.0821   N.pl3     1 RES1   0.0000
     8 C8      26.1233  42.8442  -1.0607   C.2       1 RES1   0.0000
     9 N9      26.7742  42.2895  -2.0870   N.2       1 RES1   0.0000
    10 C10     26.8558  42.9649  -3.2476   C.2       1 RES1   0.0000
    11 C11     26.2106  44.1963  -3.4080   C.2       1 RES1   0.0000
    12 S12     26.1555  45.0598  -4.9519   S.3       1 RES1   0.0000
    13 C13     27.1114  44.1208  -6.1231   C.2       1 RES1   0.0000
    14 C14     26.4410  43.3286  -7.0912   C.2       1 RES1   0.0000
    15 C15     27.1702  42.5203  -7.9861   C.2       1 RES1   0.0000
    16 C16     28.5655  42.5617  -7.9249   C.2       1 RES1   0.0000
    17 N17     29.2307  43.3220  -7.0270   N.2       1 RES1   0.0000
    18 C18     28.5401  44.1014  -6.1421   C.2       1 RES1   0.0000
    19 C19     29.4093  44.9615  -5.2205   C.3       1 RES1   0.0000
    20 F20     30.6485  44.5074  -5.2810   F         1 RES1   0.0000
    21 F21     29.4360  46.2283  -5.6454   F         1 RES1   0.0000
    22 F22     29.0424  44.9213  -3.9261   F         1 RES1   0.0000
    23 C23     25.5151  44.6696  -2.2637   C.2       1 RES1   0.0000
    24 O24     24.9469  45.8827  -2.3055   O.2       1 RES1   0.0000
    25 N25     25.4899  44.0145  -1.1010   N.am      1 RES1   0.0000
    26 C26     27.0954  41.2613   0.5832   C.3       1 RES1   0.0000
    27 C27     27.9036  42.0397   1.6140   C.3       1 RES1   0.0000
@<TRIPOS>BOND
     1     1     2    1
     2     2     3    1
     3     3     4    1
     4     2     5    1
     5     5     6    1
     6     6     7    1
     7     7     8    1
     8     8     9    2
     9     9    10    1
    10    10    11    2
    11    11    12    1
    12    12    13    1
    13    13    14    2
    14    14    15    1
    15    15    16    2
    16    16    17    1
    17    17    18    2
    18    18    19    1
    19    19    20    1
    20    19    21    1
    21    19    22    1
    22    11    23    1
    23    23    24    2
    24    23    25   am
    25     7    26    1
    26    26    27    1
    27    27     2    1
    28    25     8    1
    29    18    13    1
@<TRIPOS>SUBSTRUCTURE
     1 RES1        1 GROUP             0 ****  ****    0  
@<TRIPOS>MOLECULE
ligand_47
    27    29     1     0     0
SMALL
USER_CHARGES
****
Generated from the CSD

@<TRIPOS>ATOM
     1 C1      26.2979  43.4168   2.1713   C.3       1 RES1   0.0000
     2 C2      27.4719  42.4202   2.4196   C.3       1 RES1   0.0000
     3 C3      28.5874  43.1472   3.2215   C.3       1 RES1   0.0000
     4 N4      28.1714  43.6519   4.5210   N.3       1 RES1   1.0000
     5 C5      27.9628  41.8778   1.0835   C.3       1 RES1   0.0000
     6 C6      26.8796  41.0988   0.3504   C.3       1 RES1   0.0000
     7 N7      26.2539  40.0461   1.1729   N.pl3     1 RES1   0.0000
     8 C8      26.7638  38.7484   1.0945   C.2       1 RES1   0.0000
     9 N9      26.0688  37.7949   1.7209   N.2       1 RES1   0.0000
    10 C10     26.4570  36.5136   1.5893   C.2       1 RES1   0.0000
    11 C11     27.5258  36.1699   0.7540   C.2       1 RES1   0.0000
    12 S12     27.9882  34.4939   0.4232   S.3       1 RES1   0.0000
    13 C13     26.9266  33.4458   1.3936   C.2       1 RES1   0.0000
    14 C14     25.8524  32.7677   0.7609   C.2       1 RES1   0.0000
    15 C15     24.9535  31.9870   1.5150   C.2       1 RES1   0.0000
    16 C16     25.1810  31.8606   2.8878   C.2       1 RES1   0.0000
    17 N17     26.2074  32.4785   3.5136   N.2       1 RES1   0.0000
    18 C18     27.0808  33.2510   2.8009   C.2       1 RES1   0.0000
    19 C19     28.2343  33.8441   3.6148   C.3       1 RES1   0.0000
    20 F20     27.9359  33.7290   4.8966   F         1 RES1   0.0000
    21 F21     29.3591  33.1515   3.4115   F         1 RES1   0.0000
    22 F22     28.4543  35.1514   3.3818   F         1 RES1   0.0000
    23 C23     28.1646  37.2612   0.1071   C.2       1 RES1   0.0000
    24 O24     29.2532  37.0264  -0.6384   O.2       1 RES1   0.0000
    25 N25     27.8034  38.5329   0.2914   N.am      1 RES1   0.0000
    26 C26     25.7455  40.5627   2.4453   C.3       1 RES1   0.0000
    27 C27     26.8388  41.2861   3.2218   C.3       1 RES1   0.0000
@<TRIPOS>BOND
     1     1     2    1
     2     2     3    1
     3     3     4    1
     4     2     5    1
     5     5     6    1
     6     6     7    1
     7     7     8    1
     8     8     9    2
     9     9    10    1
    10    10    11    2
    11    11    12    1
    12    12    13    1
    13    13    14    2
    14    14    15    1
    15    15    16    2
    16    16    17    1
    17    17    18    2
    18    18    19    1
    19    19    20    1
    20    19    21    1
    21    19    22    1
    22    11    23    1
    23    23    24    2
    24    23    25   am
    25     7    26    1
    26    26    27    1
    27    27     2    1
    28    25     8    1
    29    18    13    1
@<TRIPOS>SUBSTRUCTURE
     1 RES1        1 GROUP             0 ****  ****    0  
@<TRIPOS>MOLECULE
ligand_48
    27    29     1     0     0
SMALL
USER_CHARGES
****
Generated from the CSD

@<TRIPOS>ATOM
     1 C1      28.0979  41.7257   1.4878   C.3       1 RES1   0.0000
     2 C2      27.3419  42.0350   2.8167   C.3       1 RES1   0.0000
     3 C3      28.3703  42.5083   3.8818   C.3       1 RES1   0.0000
     4 N4      27.7965  42.8329   5.1787   N.3       1 RES1   1.0000
     5 C5      26.5654  40.7995   3.2535   C.3       1 RES1   0.0000
     6 C6      25.5070  40.4001   2.2347   C.3       1 RES1   0.0000
     7 N7      24.6083  41.5069   1.8561   N.pl3     1 RES1   0.0000
     8 C8      23.4025  41.6514   2.5456   C.2       1 RES1   0.0000
     9 N9      22.5442  42.5549   2.0646   N.2       1 RES1   0.0000
    10 C10     21.3265  42.6598   2.6267   C.2       1 RES1   0.0000
    11 C11     20.9318  41.7916   3.6508   C.2       1 RES1   0.0000
    12 S12     19.2961  41.7810   4.3264   S.3       1 RES1   0.0000
    13 C13     18.3740  43.0671   3.5124   C.2       1 RES1   0.0000
    14 C14     18.1433  44.2925   4.1901   C.2       1 RES1   0.0000
    15 C15     17.3577  45.3022   3.5991   C.2       1 RES1   0.0000
    16 C16     16.8588  45.0814   2.3128   C.2       1 RES1   0.0000
    17 N17     17.0793  43.9325   1.6357   N.2       1 RES1   0.0000
    18 C18     17.8270  42.9368   2.1986   C.2       1 RES1   0.0000
    19 C19     18.0552  41.7140   1.3057   C.3       1 RES1   0.0000
    20 F20     17.1906  41.7652   0.3081   F         1 RES1   0.0000
    21 F21     19.2774  41.7465   0.7658   F         1 RES1   0.0000
    22 F22     17.8620  40.5366   1.9286   F         1 RES1   0.0000
    23 C23     21.9112  40.8451   4.0538   C.2       1 RES1   0.0000
    24 O24     21.6451  40.0372   5.0895   O.2       1 RES1   0.0000
    25 N25     23.1354  40.7898   3.5247   N.am      1 RES1   0.0000
    26 C26     25.3427  42.6888   1.3999   C.3       1 RES1   0.0000
    27 C27     26.3589  43.1411   2.4412   C.3       1 RES1   0.0000
@<TRIPOS>BOND
     1     1     2    1
     2     2     3    1
     3     3     4    1
     4     2     5    1
     5     5     6    1
     6     6     7    1
     7     7     8    1
     8     8     9    2
     9     9    10    1
    10    10    11    2
    11    11    12    1
    12    12    13    1
    13    13    14    2
    14    14    15    1
    15    15    16    2
    16    16    17    1
    17    17    18    2
    18    18    19    1
    19    19    20    1
    20    19    21    1
    21    19    22    1
    22    11    23    1
    23    23    24    2
    24    23    25   am
    25     7    26    1
    26    26    27    1
    27    27     2    1
    28    25     8    1
    29    18    13    1
@<TRIPOS>SUBSTRUCTURE
     1 RES1        1 GROUP             0 ****  ****    0  
@<TRIPOS>MOLECULE
ligand_49
    27    29     1     0     0
SMALL
USER_CHARGES
****
Generated from the CSD

@<TRIPOS>ATOM
     1 C1      26.5312  41.2084   3.4480   C.3       1 RES1   0.0000
     2 C2      27.0479  42.5218   2.7838   C.3       1 RES1   0.0000
     3 C3      27.8829  43.3174   3.8259   C.3       1 RES1   0.0000
     4 N4      27.1528  43.7016   5.0242   N.3       1 RES1   1.0000
     5 C5      25.8630  43.3144   2.2472   C.3       1 RES1   0.0000
     6 C6      25.1064  42.5512   1.1689   C.3       1 RES1   0.0000
     7 N7      25.9721  42.0559   0.0821   N.pl3     1 RES1   0.0000
     8 C8      26.1233  42.8442  -1.0607   C.2       1 RES1   0.0000
     9 N9      26.7742  42.2895  -2.0870   N.2       1 RES1   0.0000
    10 C10     26.8558  42.9649  -3.2476   C.2       1 RES1   0.0000
    11 C11     26.2106  44.1963  -3.4080   C.2       1 RES1   0.0000
    12 S12     26.1555  45.0598  -4.9519   S.3       1 RES1   0.0000
    13 C13     27.0889  44.1070  -6.1300   C.2       1 RES1   0.0000
    14 C14     28.4008  44.5228  -6.4769   C.2       1 RES1   0.0000
    15 C15     29.1372  43.8291  -7.4580   C.2       1 RES1   0.0000
    16 C16     28.5596  42.6967  -8.0380   C.2       1 RES1   0.0000
    17 N17     27.3204  42.2661  -7.7126   N.2       1 RES1   0.0000
    18 C18     26.5861  42.9344  -6.7736   C.2       1 RES1   0.0000
    19 C19     25.2258  42.3103  -6.4500   C.3       1 RES1   0.0000
    20 F20     24.9328  41.4439  -7.4034   F         1 RES1   0.0000
    21 F21     25.2824  41.6257  -5.3036   F         1 RES1   0.0000
    22 F22     24.2133  43.1959  -6.4038   F         1 RES1   0.0000
    23 C23     25.5151  44.6696  -2.2637   C.2       1 RES1   0.0000
    24 O24     24.9469  45.8827  -2.3055   O.2       1 RES1   0.0000
    25 N25     25.4899  44.0145  -1.1010   N.am      1 RES1   0.0000
    26 C26     27.0955  41.2617   0.5836   C.3       1 RES1   0.0000
    27 C27     27.9032  42.0405   1.6145   C.3       1 RES1   0.0000
@<TRIPOS>BOND
     1     1     2    1
     2     2     3    1
     3     3     4    1
     4     2     5    1
     5     5     6    1
     6     6     7    1
     7     7     8    1
     8     8     9    2
     9     9    10    1
    10    10    11    2
    11    11    12    1
    12    12    13    1
    13    13    14    2
    14    14    15    1
    15    15    16    2
    16    16    17    1
    17    17    18    2
    18    18    19    1
    19    19    20    1
    20    19    21    1
    21    19    22    1
    22    11    23    1
    23    23    24    2
    24    23    25   am
    25     7    26    1
    26    26    27    1
    27    27     2    1
    28    25     8    1
    29    18    13    1
@<TRIPOS>SUBSTRUCTURE
     1 RES1        1 GROUP             0 ****  ****    0  
@<TRIPOS>MOLECULE
ligand_50
    27    29     1     0     0
SMALL
USER_CHARGES
****
Generated from the CSD

@<TRIPOS>ATOM
     1 C1      26.2985  43.4171   2.1703   C.3       1 RES1   0.0000
     2 C2      27.4726  42.4206   2.4180   C.3       1 RES1   0.0000
     3 C3      28.5888  43.1478   3.2190   C.3       1 RES1   0.0000
     4 N4      28.1736  43.6529   4.5187   N.3       1 RES1   1.0000
     5 C5      27.9626  41.8779   1.0818   C.3       1 RES1   0.0000
     6 C6      26.8790  41.0986   0.3497   C.3       1 RES1   0.0000
     7 N7      26.2539  40.0461   1.1729   N.pl3     1 RES1   0.0000
     8 C8      26.7638  38.7484   1.0945   C.2       1 RES1   0.0000
     9 N9      26.0688  37.7949   1.7209   N.2       1 RES1   0.0000
    10 C10     26.4570  36.5136   1.5893   C.2       1 RES1   0.0000
    11 C11     27.5258  36.1699   0.7540   C.2       1 RES1   0.0000
    12 S12     27.9882  34.4939   0.4232   S.3       1 RES1   0.0000
    13 C13     26.9089  33.4450   1.3730   C.2       1 RES1   0.0000
    14 C14     27.3915  32.8516   2.5685   C.2       1 RES1   0.0000
    15 C15     26.5838  31.9614   3.3042   C.2       1 RES1   0.0000
    16 C16     25.2839  31.7224   2.8509   C.2       1 RES1   0.0000
    17 N17     24.7910  32.2892   1.7272   N.2       1 RES1   0.0000
    18 C18     25.5645  33.1439   0.9934   C.2       1 RES1   0.0000
    19 C19     24.8696  33.7667  -0.2206   C.3       1 RES1   0.0000
    20 F20     23.7737  33.0720  -0.4693   F         1 RES1   0.0000
    21 F21     24.4864  35.0188   0.0470   F         1 RES1   0.0000
    22 F22     25.6080  33.7455  -1.3457   F         1 RES1   0.0000
    23 C23     28.1646  37.2612   0.1071   C.2       1 RES1   0.0000
    24 O24     29.2532  37.0264  -0.6384   O.2       1 RES1   0.0000
    25 N25     27.8034  38.5329   0.2914   N.am      1 RES1   0.0000
    26 C26     25.7464  40.5631   2.4455   C.3       1 RES1   0.0000
    27 C27     26.8402  41.2867   3.2210   C.3       1 RES1   0.0000
@<TRIPOS>BOND
     1     1     2    1
     2     2     3    1
     3     3     4    1
     4     2     5    1
     5     5     6    1
     6     6     7    1
     7     7     8    1
     8     8     9    2
     9     9    10    1
    10    10    11    2
    11    11    12    1
    12    12    13    1
    13    13    14    2
    14    14    15    1
    15    15    16    2
    16    16    17    1
    17    17    18    2
    18    18    19    1
    19    19    20    1
    20    19    21    1
    21    19    22    1
    22    11    23    1
    23    23    24    2
    24    23    25   am
    25     7    26    1
    26    26    27    1
    27    27     2    1
    28    25     8    1
    29    18    13    1
@<TRIPOS>SUBSTRUCTURE
     1 RES1        1 GROUP             0 ****  ****    0  
@<TRIPOS>MOLECULE
ligand_51
    27    29     1     0     0
SMALL
USER_CHARGES
****
Generated from the CSD

@<TRIPOS>ATOM
     1 C1      28.0909  41.7851   1.4633   C.3       1 RES1   0.0000
     2 C2      27.3340  42.1273   2.7835   C.3       1 RES1   0.0000
     3 C3      28.3564  42.6609   3.8255   C.3       1 RES1   0.0000
     4 N4      27.7811  43.0210   5.1124   N.3       1 RES1   1.0000
     5 C5      26.5856  40.8927   3.2691   C.3       1 RES1   0.0000
     6 C6      25.5317  40.4339   2.2708   C.3       1 RES1   0.0000
     7 N7      24.6083  41.5069   1.8561   N.pl3     1 RES1   0.0000
     8 C8      23.4025  41.6514   2.5456   C.2       1 RES1   0.0000
     9 N9      23.2296  40.8713   3.6161   N.2       1 RES1   0.0000
    10 C10     22.1335  41.0436   4.3769   C.2       1 RES1   0.0000
    11 C11     21.2217  42.0682   4.0998   C.2       1 RES1   0.0000
    12 S12     19.8441  42.4398   5.1470   S.3       1 RES1   0.0000
    13 C13     19.8398  41.2461   6.4669   C.2       1 RES1   0.0000
    14 C14     20.3054  41.6288   7.7517   C.2       1 RES1   0.0000
    15 C15     20.3795  40.6872   8.7977   C.2       1 RES1   0.0000
    16 C16     19.9355  39.3864   8.5465   C.2       1 RES1   0.0000
    17 N17     19.4685  38.9991   7.3387   N.2       1 RES1   0.0000
    18 C18     19.4025  39.8948   6.3088   C.2       1 RES1   0.0000
    19 C19     18.7974  39.3486   5.0126   C.3       1 RES1   0.0000
    20 F20     18.7696  38.0303   5.0945   F         1 RES1   0.0000
    21 F21     17.5329  39.7584   4.8738   F         1 RES1   0.0000
    22 F22     19.5012  39.6555   3.9071   F         1 RES1   0.0000
    23 C23     21.5282  42.8608   2.9616   C.2       1 RES1   0.0000
    24 O24     20.6587  43.8046   2.5751   O.2       1 RES1   0.0000
    25 N25     22.5904  42.6422   2.1835   N.am      1 RES1   0.0000
    26 C26     25.3158  42.6864   1.3532   C.3       1 RES1   0.0000
    27 C27     26.3263  43.1979   2.3723   C.3       1 RES1   0.0000
@<TRIPOS>BOND
     1     1     2    1
     2     2     3    1
     3     3     4    1
     4     2     5    1
     5     5     6    1
     6     6     7    1
     7     7     8    1
     8     8     9    2
     9     9    10    1
    10    10    11    2
    11    11    12    1
    12    12    13    1
    13    13    14    2
    14    14    15    1
    15    15    16    2
    16    16    17    1
    17    17    18    2
    18    18    19    1
    19    19    20    1
    20    19    21    1
    21    19    22    1
    22    11    23    1
    23    23    24    2
    24    23    25   am
    25     7    26    1
    26    26    27    1
    27    27     2    1
    28    25     8    1
    29    18    13    1
@<TRIPOS>SUBSTRUCTURE
     1 RES1        1 GROUP             0 ****  ****    0  
@<TRIPOS>MOLECULE
ligand_52
    27    29     1     0     0
SMALL
USER_CHARGES
****
Generated from the CSD

@<TRIPOS>ATOM
     1 C1      28.0909  41.7852   1.4632   C.3       1 RES1   0.0000
     2 C2      27.3339  42.1276   2.7834   C.3       1 RES1   0.0000
     3 C3      28.3564  42.6614   3.8253   C.3       1 RES1   0.0000
     4 N4      27.7811  43.0216   5.1122   N.3       1 RES1   1.0000
     5 C5      26.5856  40.8930   3.2692   C.3       1 RES1   0.0000
     6 C6      25.5318  40.4340   2.2709   C.3       1 RES1   0.0000
     7 N7      24.6083  41.5069   1.8561   N.pl3     1 RES1   0.0000
     8 C8      23.4025  41.6514   2.5456   C.2       1 RES1   0.0000
     9 N9      23.2296  40.8713   3.6161   N.2       1 RES1   0.0000
    10 C10     22.1335  41.0436   4.3769   C.2       1 RES1   0.0000
    11 C11     21.2217  42.0682   4.0998   C.2       1 RES1   0.0000
    12 S12     19.8441  42.4398   5.1470   S.3       1 RES1   0.0000
    13 C13     19.8556  41.2628   6.4818   C.2       1 RES1   0.0000
    14 C14     18.9460  40.1737   6.4561   C.2       1 RES1   0.0000
    15 C15     18.8837  39.2656   7.5320   C.2       1 RES1   0.0000
    16 C16     19.7745  39.4399   8.5943   C.2       1 RES1   0.0000
    17 N17     20.6650  40.4559   8.6360   N.2       1 RES1   0.0000
    18 C18     20.7301  41.3542   7.6083   C.2       1 RES1   0.0000
    19 C19     21.8215  42.4193   7.7467   C.3       1 RES1   0.0000
    20 F20     22.2379  42.4219   9.0005   F         1 RES1   0.0000
    21 F21     22.8765  42.1142   6.9850   F         1 RES1   0.0000
    22 F22     21.4056  43.6694   7.4717   F         1 RES1   0.0000
    23 C23     21.5282  42.8608   2.9616   C.2       1 RES1   0.0000
    24 O24     20.6587  43.8046   2.5751   O.2       1 RES1   0.0000
    25 N25     22.5904  42.6422   2.1835   N.am      1 RES1   0.0000
    26 C26     25.3157  42.6864   1.3531   C.3       1 RES1   0.0000
    27 C27     26.3262  43.1981   2.3721   C.3       1 RES1   0.0000
@<TRIPOS>BOND
     1     1     2    1
     2     2     3    1
     3     3     4    1
     4     2     5    1
     5     5     6    1
     6     6     7    1
     7     7     8    1
     8     8     9    2
     9     9    10    1
    10    10    11    2
    11    11    12    1
    12    12    13    1
    13    13    14    2
    14    14    15    1
    15    15    16    2
    16    16    17    1
    17    17    18    2
    18    18    19    1
    19    19    20    1
    20    19    21    1
    21    19    22    1
    22    11    23    1
    23    23    24    2
    24    23    25   am
    25     7    26    1
    26    26    27    1
    27    27     2    1
    28    25     8    1
    29    18    13    1
@<TRIPOS>SUBSTRUCTURE
     1 RES1        1 GROUP             0 ****  ****    0  
@<TRIPOS>MOLECULE
ligand_53
    27    29     1     0     0
SMALL
USER_CHARGES
****
Generated from the CSD

@<TRIPOS>ATOM
     1 C1      26.5815  41.1728   3.4300   C.3       1 RES1   0.0000
     2 C2      27.1275  42.4708   2.7592   C.3       1 RES1   0.0000
     3 C3      28.0141  43.2318   3.7842   C.3       1 RES1   0.0000
     4 N4      27.3266  43.6349   5.0014   N.3       1 RES1   1.0000
     5 C5      25.9583  43.3066   2.2544   C.3       1 RES1   0.0000
     6 C6      25.1502  42.5754   1.1914   C.3       1 RES1   0.0000
     7 N7      25.9721  42.0559   0.0821   N.pl3     1 RES1   0.0000
     8 C8      26.1233  42.8442  -1.0607   C.2       1 RES1   0.0000
     9 N9      25.6017  44.0731  -1.0118   N.2       1 RES1   0.0000
    10 C10     25.8101  44.9103  -2.0440   C.2       1 RES1   0.0000
    11 C11     26.6190  44.5330  -3.1218   C.2       1 RES1   0.0000
    12 S12     27.0519  45.6393  -4.4336   S.3       1 RES1   0.0000
    13 C13     26.2112  47.1787  -4.1329   C.2       1 RES1   0.0000
    14 C14     26.9404  48.2783  -3.6102   C.2       1 RES1   0.0000
    15 C15     26.2880  49.4874  -3.2963   C.2       1 RES1   0.0000
    16 C16     24.9197  49.5866  -3.5615   C.2       1 RES1   0.0000
    17 N17     24.2040  48.5627  -4.0775   N.2       1 RES1   0.0000
    18 C18     24.8170  47.3781  -4.3750   C.2       1 RES1   0.0000
    19 C19     23.9102  46.3211  -5.0115   C.3       1 RES1   0.0000
    20 F20     22.6552  46.6934  -4.8328   F         1 RES1   0.0000
    21 F21     24.1150  46.2574  -6.3307   F         1 RES1   0.0000
    22 F22     24.0337  45.0950  -4.4702   F         1 RES1   0.0000
    23 C23     27.1534  43.2191  -3.0475   C.2       1 RES1   0.0000
    24 O24     27.8640  42.7483  -4.0817   O.2       1 RES1   0.0000
    25 N25     26.8920  42.3795  -2.0433   N.am      1 RES1   0.0000
    26 C26     27.0789  41.2208   0.5532   C.3       1 RES1   0.0000
    27 C27     27.9374  41.9660   1.5676   C.3       1 RES1   0.0000
@<TRIPOS>BOND
     1     1     2    1
     2     2     3    1
     3     3     4    1
     4     2     5    1
     5     5     6    1
     6     6     7    1
     7     7     8    1
     8     8     9    2
     9     9    10    1
    10    10    11    2
    11    11    12    1
    12    12    13    1
    13    13    14    2
    14    14    15    1
    15    15    16    2
    16    16    17    1
    17    17    18    2
    18    18    19    1
    19    19    20    1
    20    19    21    1
    21    19    22    1
    22    11    23    1
    23    23    24    2
    24    23    25   am
    25     7    26    1
    26    26    27    1
    27    27     2    1
    28    25     8    1
    29    18    13    1
@<TRIPOS>SUBSTRUCTURE
     1 RES1        1 GROUP             0 ****  ****    0  
@<TRIPOS>MOLECULE
ligand_54
    27    29     1     0     0
SMALL
USER_CHARGES
****
Generated from the CSD

@<TRIPOS>ATOM
     1 C1      26.2659  43.4011   2.2238   C.3       1 RES1   0.0000
     2 C2      27.4273  42.3977   2.5022   C.3       1 RES1   0.0000
     3 C3      28.5123  43.1094   3.3580   C.3       1 RES1   0.0000
     4 N4      28.0470  43.5953   4.6480   N.3       1 RES1   1.0000
     5 C5      27.9687  41.8745   1.1781   C.3       1 RES1   0.0000
     6 C6      26.9133  41.1095   0.3916   C.3       1 RES1   0.0000
     7 N7      26.2539  40.0461   1.1729   N.pl3     1 RES1   0.0000
     8 C8      26.7638  38.7484   1.0945   C.2       1 RES1   0.0000
     9 N9      27.8948  38.5921   0.4011   N.2       1 RES1   0.0000
    10 C10     28.4850  37.3833   0.3822   C.2       1 RES1   0.0000
    11 C11     27.9686  36.3210   1.1325   C.2       1 RES1   0.0000
    12 S12     28.7803  34.7541   1.2673   S.3       1 RES1   0.0000
    13 C13     30.2302  34.8136   0.2372   C.2       1 RES1   0.0000
    14 C14     31.5039  34.9851   0.8391   C.2       1 RES1   0.0000
    15 C15     32.6620  35.1061   0.0451   C.2       1 RES1   0.0000
    16 C16     32.5247  35.0015  -1.3415   C.2       1 RES1   0.0000
    17 N17     31.3272  34.8181  -1.9408   N.2       1 RES1   0.0000
    18 C18     30.1917  34.7126  -1.1878   C.2       1 RES1   0.0000
    19 C19     28.9102  34.4442  -1.9817   C.3       1 RES1   0.0000
    20 F20     29.1547  34.6947  -3.2556   F         1 RES1   0.0000
    21 F21     28.5640  33.1562  -1.8959   F         1 RES1   0.0000
    22 F22     27.8710  35.2215  -1.6243   F         1 RES1   0.0000
    23 C23     26.7861  36.6135   1.8630   C.2       1 RES1   0.0000
    24 O24     26.1775  35.6263   2.5347   O.2       1 RES1   0.0000
    25 N25     26.1805  37.8024   1.8274   N.am      1 RES1   0.0000
    26 C26     25.6974  40.5446   2.4324   C.3       1 RES1   0.0000
    27 C27     26.7612  41.2532   3.2618   C.3       1 RES1   0.0000
@<TRIPOS>BOND
     1     1     2    1
     2     2     3    1
     3     3     4    1
     4     2     5    1
     5     5     6    1
     6     6     7    1
     7     7     8    1
     8     8     9    2
     9     9    10    1
    10    10    11    2
    11    11    12    1
    12    12    13    1
    13    13    14    2
    14    14    15    1
    15    15    16    2
    16    16    17    1
    17    17    18    2
    18    18    19    1
    19    19    20    1
    20    19    21    1
    21    19    22    1
    22    11    23    1
    23    23    24    2
    24    23    25   am
    25     7    26    1
    26    26    27    1
    27    27     2    1
    28    25     8    1
    29    18    13    1
@<TRIPOS>SUBSTRUCTURE
     1 RES1        1 GROUP             0 ****  ****    0  
@<TRIPOS>MOLECULE
ligand_55
    27    29     1     0     0
SMALL
USER_CHARGES
****
Generated from the CSD

@<TRIPOS>ATOM
     1 C1      26.5819  41.1725   3.4299   C.3       1 RES1   0.0000
     2 C2      27.1281  42.4704   2.7589   C.3       1 RES1   0.0000
     3 C3      28.0152  43.2311   3.7838   C.3       1 RES1   0.0000
     4 N4      27.3281  43.6344   5.0011   N.3       1 RES1   1.0000
     5 C5      25.9591  43.3065   2.2544   C.3       1 RES1   0.0000
     6 C6      25.1506  42.5756   1.1916   C.3       1 RES1   0.0000
     7 N7      25.9721  42.0559   0.0821   N.pl3     1 RES1   0.0000
     8 C8      26.1233  42.8442  -1.0607   C.2       1 RES1   0.0000
     9 N9      25.6017  44.0731  -1.0118   N.2       1 RES1   0.0000
    10 C10     25.8101  44.9103  -2.0440   C.2       1 RES1   0.0000
    11 C11     26.6190  44.5330  -3.1218   C.2       1 RES1   0.0000
    12 S12     27.0519  45.6393  -4.4336   S.3       1 RES1   0.0000
    13 C13     26.2327  47.1874  -4.1184   C.2       1 RES1   0.0000
    14 C14     25.0636  47.5173  -4.8523   C.2       1 RES1   0.0000
    15 C15     24.4336  48.7654  -4.6747   C.2       1 RES1   0.0000
    16 C16     24.9624  49.6415  -3.7233   C.2       1 RES1   0.0000
    17 N17     26.0625  49.3456  -2.9959   N.2       1 RES1   0.0000
    18 C18     26.6948  48.1460  -3.1646   C.2       1 RES1   0.0000
    19 C19     27.8899  47.9073  -2.2376   C.3       1 RES1   0.0000
    20 F20     28.2393  49.0666  -1.7090   F         1 RES1   0.0000
    21 F21     27.5482  47.1035  -1.2260   F         1 RES1   0.0000
    22 F22     28.9785  47.4196  -2.8611   F         1 RES1   0.0000
    23 C23     27.1534  43.2191  -3.0475   C.2       1 RES1   0.0000
    24 O24     27.8640  42.7483  -4.0817   O.2       1 RES1   0.0000
    25 N25     26.8920  42.3795  -2.0433   N.am      1 RES1   0.0000
    26 C26     27.0788  41.2204   0.5529   C.3       1 RES1   0.0000
    27 C27     27.9377  41.9654   1.5672   C.3       1 RES1   0.0000
@<TRIPOS>BOND
     1     1     2    1
     2     2     3    1
     3     3     4    1
     4     2     5    1
     5     5     6    1
     6     6     7    1
     7     7     8    1
     8     8     9    2
     9     9    10    1
    10    10    11    2
    11    11    12    1
    12    12    13    1
    13    13    14    2
    14    14    15    1
    15    15    16    2
    16    16    17    1
    17    17    18    2
    18    18    19    1
    19    19    20    1
    20    19    21    1
    21    19    22    1
    22    11    23    1
    23    23    24    2
    24    23    25   am
    25     7    26    1
    26    26    27    1
    27    27     2    1
    28    25     8    1
    29    18    13    1
@<TRIPOS>SUBSTRUCTURE
     1 RES1        1 GROUP             0 ****  ****    0  
@<TRIPOS>MOLECULE
ligand_56
    27    29     1     0     0
SMALL
USER_CHARGES
****
Generated from the CSD

@<TRIPOS>ATOM
     1 C1      26.2658  43.4010   2.2240   C.3       1 RES1   0.0000
     2 C2      27.4271  42.3976   2.5025   C.3       1 RES1   0.0000
     3 C3      28.5120  43.1093   3.3584   C.3       1 RES1   0.0000
     4 N4      28.0466  43.5951   4.6484   N.3       1 RES1   1.0000
     5 C5      27.9687  41.8744   1.1784   C.3       1 RES1   0.0000
     6 C6      26.9134  41.1095   0.3918   C.3       1 RES1   0.0000
     7 N7      26.2539  40.0461   1.1729   N.pl3     1 RES1   0.0000
     8 C8      26.7638  38.7484   1.0945   C.2       1 RES1   0.0000
     9 N9      27.8948  38.5921   0.4011   N.2       1 RES1   0.0000
    10 C10     28.4850  37.3833   0.3822   C.2       1 RES1   0.0000
    11 C11     27.9686  36.3210   1.1325   C.2       1 RES1   0.0000
    12 S12     28.7803  34.7541   1.2673   S.3       1 RES1   0.0000
    13 C13     30.2447  34.8229   0.2584   C.2       1 RES1   0.0000
    14 C14     30.2444  34.1891  -1.0114   C.2       1 RES1   0.0000
    15 C15     31.4107  34.1668  -1.8021   C.2       1 RES1   0.0000
    16 C16     32.5449  34.8275  -1.3231   C.2       1 RES1   0.0000
    17 N17     32.5679  35.4564  -0.1269   N.2       1 RES1   0.0000
    18 C18     31.4506  35.4763   0.6596   C.2       1 RES1   0.0000
    19 C19     31.5874  36.2737   1.9597   C.3       1 RES1   0.0000
    20 F20     32.8728  36.4859   2.1794   F         1 RES1   0.0000
    21 F21     31.0081  37.4721   1.8404   F         1 RES1   0.0000
    22 F22     31.1062  35.6395   3.0450   F         1 RES1   0.0000
    23 C23     26.7861  36.6135   1.8630   C.2       1 RES1   0.0000
    24 O24     26.1775  35.6263   2.5347   O.2       1 RES1   0.0000
    25 N25     26.1805  37.8024   1.8274   N.am      1 RES1   0.0000
    26 C26     25.6972  40.5446   2.4323   C.3       1 RES1   0.0000
    27 C27     26.7609  41.2530   3.2619   C.3       1 RES1   0.0000
@<TRIPOS>BOND
     1     1     2    1
     2     2     3    1
     3     3     4    1
     4     2     5    1
     5     5     6    1
     6     6     7    1
     7     7     8    1
     8     8     9    2
     9     9    10    1
    10    10    11    2
    11    11    12    1
    12    12    13    1
    13    13    14    2
    14    14    15    1
    15    15    16    2
    16    16    17    1
    17    17    18    2
    18    18    19    1
    19    19    20    1
    20    19    21    1
    21    19    22    1
    22    11    23    1
    23    23    24    2
    24    23    25   am
    25     7    26    1
    26    26    27    1
    27    27     2    1
    28    25     8    1
    29    18    13    1
@<TRIPOS>SUBSTRUCTURE
     1 RES1        1 GROUP             0 ****  ****    0  
@<TRIPOS>MOLECULE
ligand_57
    27    29     1     0     0
SMALL
USER_CHARGES
****
Generated from the CSD

@<TRIPOS>ATOM
     1 C1      28.1252  41.9455   1.4236   C.3       1 RES1   0.0000
     2 C2      27.3070  42.3390   2.6920   C.3       1 RES1   0.0000
     3 C3      28.3100  43.0110   3.6710   C.3       1 RES1   0.0000
     4 N4      27.7278  43.4539   4.9286   N.3       1 RES1   1.0000
     5 C5      26.7246  41.0737   3.2928   C.3       1 RES1   0.0000
     6 C6      25.6253  40.4962   2.4340   C.3       1 RES1   0.0000
     7 N7      24.5785  41.4883   2.1905   N.pl3     1 RES1   0.0000
     8 C8      23.2849  41.0514   1.8974   C.2       1 RES1   0.0000
     9 N9      22.8114  41.3572   0.6863   N.2       1 RES1   0.0000
    10 C10     21.6136  40.8710   0.3139   C.2       1 RES1   0.0000
    11 C11     20.9023  40.0001   1.1468   C.2       1 RES1   0.0000
    12 S12     19.3970  39.2111   0.6531   S.3       1 RES1   0.0000
    13 C13     18.9939  39.8024  -0.9763   C.2       1 RES1   0.0000
    14 C14     19.8470  39.4797  -2.0636   C.2       1 RES1   0.0000
    15 C15     19.5920  39.9915  -3.3517   C.2       1 RES1   0.0000
    16 C16     18.4526  40.7794  -3.5346   C.2       1 RES1   0.0000
    17 N17     17.6118  41.0862  -2.5218   N.2       1 RES1   0.0000
    18 C18     17.8507  40.6104  -1.2633   C.2       1 RES1   0.0000
    19 C19     16.7916  40.9771  -0.2199   C.3       1 RES1   0.0000
    20 F20     16.0445  41.9479  -0.7149   F         1 RES1   0.0000
    21 F21     15.9813  39.9402   0.0131   F         1 RES1   0.0000
    22 F22     17.2997  41.4300   0.9413   F         1 RES1   0.0000
    23 C23     21.5207  39.7130   2.3928   C.2       1 RES1   0.0000
    24 O24     20.8631  38.9600   3.2853   O.2       1 RES1   0.0000
    25 N25     22.6836  40.2475   2.7718   N.am      1 RES1   0.0000
    26 C26     25.0997  42.6845   1.5238   C.3       1 RES1   0.0000
    27 C27     26.2102  43.3175   2.3594   C.3       1 RES1   0.0000
@<TRIPOS>BOND
     1     1     2    1
     2     2     3    1
     3     3     4    1
     4     2     5    1
     5     5     6    1
     6     6     7    1
     7     7     8    1
     8     8     9    2
     9     9    10    1
    10    10    11    2
    11    11    12    1
    12    12    13    1
    13    13    14    2
    14    14    15    1
    15    15    16    2
    16    16    17    1
    17    17    18    2
    18    18    19    1
    19    19    20    1
    20    19    21    1
    21    19    22    1
    22    11    23    1
    23    23    24    2
    24    23    25   am
    25     7    26    1
    26    26    27    1
    27    27     2    1
    28    25     8    1
    29    18    13    1
@<TRIPOS>SUBSTRUCTURE
     1 RES1        1 GROUP             0 ****  ****    0  
@<TRIPOS>MOLECULE
ligand_58
    27    29     1     0     0
SMALL
USER_CHARGES
****
Generated from the CSD

@<TRIPOS>ATOM
     1 C1      28.1252  41.9455   1.4236   C.3       1 RES1   0.0000
     2 C2      27.3070  42.3390   2.6920   C.3       1 RES1   0.0000
     3 C3      28.3100  43.0110   3.6710   C.3       1 RES1   0.0000
     4 N4      27.7278  43.4539   4.9286   N.3       1 RES1   1.0000
     5 C5      26.7246  41.0737   3.2928   C.3       1 RES1   0.0000
     6 C6      25.6253  40.4962   2.4340   C.3       1 RES1   0.0000
     7 N7      24.5785  41.4883   2.1905   N.pl3     1 RES1   0.0000
     8 C8      23.2849  41.0514   1.8974   C.2       1 RES1   0.0000
     9 N9      22.8114  41.3572   0.6863   N.2       1 RES1   0.0000
    10 C10     21.6136  40.8710   0.3139   C.2       1 RES1   0.0000
    11 C11     20.9023  40.0001   1.1468   C.2       1 RES1   0.0000
    12 S12     19.3970  39.2111   0.6531   S.3       1 RES1   0.0000
    13 C13     18.9891  39.8093  -0.9726   C.2       1 RES1   0.0000
    14 C14     18.6333  41.1726  -1.1426   C.2       1 RES1   0.0000
    15 C15     18.2378  41.6586  -2.4049   C.2       1 RES1   0.0000
    16 C16     18.2559  40.7749  -3.4871   C.2       1 RES1   0.0000
    17 N17     18.6096  39.4767  -3.3585   N.2       1 RES1   0.0000
    18 C18     18.9824  38.9843  -2.1395   C.2       1 RES1   0.0000
    19 C19     19.4194  37.5167  -2.1394   C.3       1 RES1   0.0000
    20 F20     19.0281  36.9704  -3.2768   F         1 RES1   0.0000
    21 F21     20.7518  37.4221  -2.0982   F         1 RES1   0.0000
    22 F22     18.8783  36.7837  -1.1486   F         1 RES1   0.0000
    23 C23     21.5207  39.7130   2.3928   C.2       1 RES1   0.0000
    24 O24     20.8631  38.9600   3.2853   O.2       1 RES1   0.0000
    25 N25     22.6836  40.2475   2.7718   N.am      1 RES1   0.0000
    26 C26     25.0997  42.6845   1.5238   C.3       1 RES1   0.0000
    27 C27     26.2102  43.3175   2.3594   C.3       1 RES1   0.0000
@<TRIPOS>BOND
     1     1     2    1
     2     2     3    1
     3     3     4    1
     4     2     5    1
     5     5     6    1
     6     6     7    1
     7     7     8    1
     8     8     9    2
     9     9    10    1
    10    10    11    2
    11    11    12    1
    12    12    13    1
    13    13    14    2
    14    14    15    1
    15    15    16    2
    16    16    17    1
    17    17    18    2
    18    18    19    1
    19    19    20    1
    20    19    21    1
    21    19    22    1
    22    11    23    1
    23    23    24    2
    24    23    25   am
    25     7    26    1
    26    26    27    1
    27    27     2    1
    28    25     8    1
    29    18    13    1
@<TRIPOS>SUBSTRUCTURE
     1 RES1        1 GROUP             0 ****  ****    0  
@<TRIPOS>MOLECULE
ligand_59
    27    29     1     0     0
SMALL
USER_CHARGES
****
Generated from the CSD

@<TRIPOS>ATOM
     1 C1      28.1252  41.9455   1.4236   C.3       1 RES1   0.0000
     2 C2      27.3070  42.3390   2.6920   C.3       1 RES1   0.0000
     3 C3      28.3100  43.0110   3.6710   C.3       1 RES1   0.0000
     4 N4      27.7278  43.4539   4.9286   N.3       1 RES1   1.0000
     5 C5      26.7246  41.0737   3.2928   C.3       1 RES1   0.0000
     6 C6      25.6253  40.4962   2.4340   C.3       1 RES1   0.0000
     7 N7      24.5785  41.4883   2.1905   N.pl3     1 RES1   0.0000
     8 C8      23.2849  41.0514   1.8974   C.2       1 RES1   0.0000
     9 N9      23.1299  40.3621   0.7636   N.2       1 RES1   0.0000
    10 C10     21.9269  39.8279   0.4859   C.2       1 RES1   0.0000
    11 C11     20.8702  39.9264   1.3980   C.2       1 RES1   0.0000
    12 S12     19.3135  39.1194   1.1582   S.3       1 RES1   0.0000
    13 C13     19.3760  38.2970  -0.4188   C.2       1 RES1   0.0000
    14 C14     20.2801  37.2190  -0.6052   C.2       1 RES1   0.0000
    15 C15     20.4019  36.5943  -1.8626   C.2       1 RES1   0.0000
    16 C16     19.5742  37.0324  -2.8995   C.2       1 RES1   0.0000
    17 N17     18.6901  38.0431  -2.7451   N.2       1 RES1   0.0000
    18 C18     18.5681  38.6699  -1.5370   C.2       1 RES1   0.0000
    19 C19     17.4890  39.7546  -1.4756   C.3       1 RES1   0.0000
    20 F20     17.1364  40.0553  -2.7128   F         1 RES1   0.0000
    21 F21     16.3959  39.2969  -0.8578   F         1 RES1   0.0000
    22 F22     17.8953  40.8999  -0.8970   F         1 RES1   0.0000
    23 C23     21.1614  40.6465   2.5872   C.2       1 RES1   0.0000
    24 O24     20.1779  40.8641   3.4712   O.2       1 RES1   0.0000
    25 N25     22.3437  41.2191   2.8239   N.am      1 RES1   0.0000
    26 C26     25.0997  42.6845   1.5238   C.3       1 RES1   0.0000
    27 C27     26.2102  43.3175   2.3594   C.3       1 RES1   0.0000
@<TRIPOS>BOND
     1     1     2    1
     2     2     3    1
     3     3     4    1
     4     2     5    1
     5     5     6    1
     6     6     7    1
     7     7     8    1
     8     8     9    2
     9     9    10    1
    10    10    11    2
    11    11    12    1
    12    12    13    1
    13    13    14    2
    14    14    15    1
    15    15    16    2
    16    16    17    1
    17    17    18    2
    18    18    19    1
    19    19    20    1
    20    19    21    1
    21    19    22    1
    22    11    23    1
    23    23    24    2
    24    23    25   am
    25     7    26    1
    26    26    27    1
    27    27     2    1
    28    25     8    1
    29    18    13    1
@<TRIPOS>SUBSTRUCTURE
     1 RES1        1 GROUP             0 ****  ****    0  
@<TRIPOS>MOLECULE
ligand_60
    27    29     1     0     0
SMALL
USER_CHARGES
****
Generated from the CSD

@<TRIPOS>ATOM
     1 C1      28.1252  41.9455   1.4236   C.3       1 RES1   0.0000
     2 C2      27.3070  42.3390   2.6920   C.3       1 RES1   0.0000
     3 C3      28.3100  43.0110   3.6710   C.3       1 RES1   0.0000
     4 N4      27.7278  43.4539   4.9286   N.3       1 RES1   1.0000
     5 C5      26.7246  41.0737   3.2928   C.3       1 RES1   0.0000
     6 C6      25.6253  40.4962   2.4340   C.3       1 RES1   0.0000
     7 N7      24.5785  41.4883   2.1905   N.pl3     1 RES1   0.0000
     8 C8      23.2849  41.0514   1.8974   C.2       1 RES1   0.0000
     9 N9      23.1299  40.3621   0.7636   N.2       1 RES1   0.0000
    10 C10     21.9269  39.8279   0.4859   C.2       1 RES1   0.0000
    11 C11     20.8702  39.9264   1.3980   C.2       1 RES1   0.0000
    12 S12     19.3135  39.1194   1.1582   S.3       1 RES1   0.0000
    13 C13     19.3727  38.3045  -0.4228   C.2       1 RES1   0.0000
    14 C14     19.4428  39.0860  -1.6054   C.2       1 RES1   0.0000
    15 C15     19.4204  38.4715  -2.8735   C.2       1 RES1   0.0000
    16 C16     19.3788  37.0760  -2.9294   C.2       1 RES1   0.0000
    17 N17     19.3318  36.3060  -1.8196   N.2       1 RES1   0.0000
    18 C18     19.3385  36.8848  -0.5817   C.2       1 RES1   0.0000
    19 C19     19.3455  35.9025   0.5929   C.3       1 RES1   0.0000
    20 F20     19.0198  34.7077   0.1328   F         1 RES1   0.0000
    21 F21     20.5720  35.7998   1.1138   F         1 RES1   0.0000
    22 F22     18.4609  36.2010   1.5624   F         1 RES1   0.0000
    23 C23     21.1614  40.6465   2.5872   C.2       1 RES1   0.0000
    24 O24     20.1779  40.8641   3.4712   O.2       1 RES1   0.0000
    25 N25     22.3437  41.2191   2.8239   N.am      1 RES1   0.0000
    26 C26     25.0997  42.6845   1.5238   C.3       1 RES1   0.0000
    27 C27     26.2102  43.3175   2.3594   C.3       1 RES1   0.0000
@<TRIPOS>BOND
     1     1     2    1
     2     2     3    1
     3     3     4    1
     4     2     5    1
     5     5     6    1
     6     6     7    1
     7     7     8    1
     8     8     9    2
     9     9    10    1
    10    10    11    2
    11    11    12    1
    12    12    13    1
    13    13    14    2
    14    14    15    1
    15    15    16    2
    16    16    17    1
    17    17    18    2
    18    18    19    1
    19    19    20    1
    20    19    21    1
    21    19    22    1
    22    11    23    1
    23    23    24    2
    24    23    25   am
    25     7    26    1
    26    26    27    1
    27    27     2    1
    28    25     8    1
    29    18    13    1
@<TRIPOS>SUBSTRUCTURE
     1 RES1        1 GROUP             0 ****  ****    0  
@<TRIPOS>MOLECULE
ligand_61
    27    29     1     0     0
SMALL
USER_CHARGES
****
Generated from the CSD

@<TRIPOS>ATOM
     1 C1      28.1180  41.9765   1.4094   C.3       1 RES1   0.0000
     2 C2      27.3065  42.3413   2.6906   C.3       1 RES1   0.0000
     3 C3      28.3131  42.9985   3.6760   C.3       1 RES1   0.0000
     4 N4      27.7374  43.4140   4.9459   N.3       1 RES1   1.0000
     5 C5      26.7338  41.0618   3.2703   C.3       1 RES1   0.0000
     6 C6      25.6312  40.4963   2.4075   C.3       1 RES1   0.0000
     7 N7      24.5785  41.4883   2.1905   N.pl3     1 RES1   0.0000
     8 C8      23.2849  41.0514   1.8974   C.2       1 RES1   0.0000
     9 N9      22.6521  40.3720   2.8579   N.2       1 RES1   0.0000
    10 C10     21.3677  40.0199   2.6679   C.2       1 RES1   0.0000
    11 C11     20.6774  40.4174   1.5174   C.2       1 RES1   0.0000
    12 S12     18.9501  40.1147   1.2787   S.3       1 RES1   0.0000
    13 C13     18.3705  39.1917   2.6856   C.2       1 RES1   0.0000
    14 C14     18.3717  39.8030   3.9664   C.2       1 RES1   0.0000
    15 C15     17.9848  39.0747   5.1092   C.2       1 RES1   0.0000
    16 C16     17.5544  37.7566   4.9366   C.2       1 RES1   0.0000
    17 N17     17.5238  37.1554   3.7264   N.2       1 RES1   0.0000
    18 C18     17.9086  37.8416   2.6091   C.2       1 RES1   0.0000
    19 C19     17.7683  37.0696   1.2941   C.3       1 RES1   0.0000
    20 F20     17.6035  35.7910   1.5826   F         1 RES1   0.0000
    21 F21     16.6776  37.4644   0.6303   F         1 RES1   0.0000
    22 F22     18.8462  37.1523   0.4923   F         1 RES1   0.0000
    23 C23     21.4384  41.1703   0.5839   C.2       1 RES1   0.0000
    24 O24     20.8779  41.5120  -0.5846   O.2       1 RES1   0.0000
    25 N25     22.7284  41.4642   0.7606   N.am      1 RES1   0.0000
    26 C26     25.0899  42.6998   1.5441   C.3       1 RES1   0.0000
    27 C27     26.2032  43.3212   2.3847   C.3       1 RES1   0.0000
@<TRIPOS>BOND
     1     1     2    1
     2     2     3    1
     3     3     4    1
     4     2     5    1
     5     5     6    1
     6     6     7    1
     7     7     8    1
     8     8     9    2
     9     9    10    1
    10    10    11    2
    11    11    12    1
    12    12    13    1
    13    13    14    2
    14    14    15    1
    15    15    16    2
    16    16    17    1
    17    17    18    2
    18    18    19    1
    19    19    20    1
    20    19    21    1
    21    19    22    1
    22    11    23    1
    23    23    24    2
    24    23    25   am
    25     7    26    1
    26    26    27    1
    27    27     2    1
    28    25     8    1
    29    18    13    1
@<TRIPOS>SUBSTRUCTURE
     1 RES1        1 GROUP             0 ****  ****    0  
@<TRIPOS>MOLECULE
ligand_62
    27    29     1     0     0
SMALL
USER_CHARGES
****
Generated from the CSD

@<TRIPOS>ATOM
     1 C1      28.1176  41.9780   1.4087   C.3       1 RES1   0.0000
     2 C2      27.3065  42.3414   2.6906   C.3       1 RES1   0.0000
     3 C3      28.3132  42.9979   3.6763   C.3       1 RES1   0.0000
     4 N4      27.7381  43.4108   4.9472   N.3       1 RES1   1.0000
     5 C5      26.7342  41.0613   3.2692   C.3       1 RES1   0.0000
     6 C6      25.6315  40.4963   2.4062   C.3       1 RES1   0.0000
     7 N7      24.5785  41.4883   2.1905   N.pl3     1 RES1   0.0000
     8 C8      23.2849  41.0514   1.8974   C.2       1 RES1   0.0000
     9 N9      22.6521  40.3720   2.8579   N.2       1 RES1   0.0000
    10 C10     21.3677  40.0199   2.6679   C.2       1 RES1   0.0000
    11 C11     20.6774  40.4174   1.5174   C.2       1 RES1   0.0000
    12 S12     18.9501  40.1147   1.2787   S.3       1 RES1   0.0000
    13 C13     18.3726  39.1837   2.6812   C.2       1 RES1   0.0000
    14 C14     18.8418  37.8587   2.8769   C.2       1 RES1   0.0000
    15 C15     18.3495  37.0728   3.9381   C.2       1 RES1   0.0000
    16 C16     17.4295  37.6520   4.8159   C.2       1 RES1   0.0000
    17 N17     16.9804  38.9179   4.6656   N.2       1 RES1   0.0000
    18 C18     17.4359  39.6900   3.6343   C.2       1 RES1   0.0000
    19 C19     16.8983  41.1236   3.6114   C.3       1 RES1   0.0000
    20 F20     15.8588  41.1868   4.4243   F         1 RES1   0.0000
    21 F21     17.8135  41.9774   4.0800   F         1 RES1   0.0000
    22 F22     16.4717  41.5299   2.4012   F         1 RES1   0.0000
    23 C23     21.4384  41.1703   0.5839   C.2       1 RES1   0.0000
    24 O24     20.8779  41.5120  -0.5846   O.2       1 RES1   0.0000
    25 N25     22.7284  41.4642   0.7606   N.am      1 RES1   0.0000
    26 C26     25.0895  42.7005   1.5450   C.3       1 RES1   0.0000
    27 C27     26.2029  43.3213   2.3858   C.3       1 RES1   0.0000
@<TRIPOS>BOND
     1     1     2    1
     2     2     3    1
     3     3     4    1
     4     2     5    1
     5     5     6    1
     6     6     7    1
     7     7     8    1
     8     8     9    2
     9     9    10    1
    10    10    11    2
    11    11    12    1
    12    12    13    1
    13    13    14    2
    14    14    15    1
    15    15    16    2
    16    16    17    1
    17    17    18    2
    18    18    19    1
    19    19    20    1
    20    19    21    1
    21    19    22    1
    22    11    23    1
    23    23    24    2
    24    23    25   am
    25     7    26    1
    26    26    27    1
    27    27     2    1
    28    25     8    1
    29    18    13    1
@<TRIPOS>SUBSTRUCTURE
     1 RES1        1 GROUP             0 ****  ****    0  
@<TRIPOS>MOLECULE
ligand_63
    27    29     1     0     0
SMALL
USER_CHARGES
****
Generated from the CSD

@<TRIPOS>ATOM
     1 C1      28.1252  41.9455   1.4236   C.3       1 RES1   0.0000
     2 C2      27.3070  42.3390   2.6920   C.3       1 RES1   0.0000
     3 C3      28.3100  43.0110   3.6710   C.3       1 RES1   0.0000
     4 N4      27.7278  43.4539   4.9286   N.3       1 RES1   1.0000
     5 C5      26.7246  41.0737   3.2928   C.3       1 RES1   0.0000
     6 C6      25.6253  40.4962   2.4340   C.3       1 RES1   0.0000
     7 N7      24.5785  41.4883   2.1905   N.pl3     1 RES1   0.0000
     8 C8      23.2849  41.0514   1.8974   C.2       1 RES1   0.0000
     9 N9      22.3336  41.3671   2.7805   N.2       1 RES1   0.0000
    10 C10     21.0544  41.0629   2.4959   C.2       1 RES1   0.0000
    11 C11     20.7094  40.4911   1.2662   C.2       1 RES1   0.0000
    12 S12     19.0335  40.2063   0.7736   S.3       1 RES1   0.0000
    13 C13     17.9885  40.6969   2.1280   C.2       1 RES1   0.0000
    14 C14     17.9387  42.0634   2.5079   C.2       1 RES1   0.0000
    15 C15     17.1750  42.4713   3.6199   C.2       1 RES1   0.0000
    16 C16     16.4330  41.5030   4.3012   C.2       1 RES1   0.0000
    17 N17     16.4456  40.1981   3.9494   N.2       1 RES1   0.0000
    18 C18     17.1913  39.7819   2.8825   C.2       1 RES1   0.0000
    19 C19     17.0710  38.2922   2.5494   C.3       1 RES1   0.0000
    20 F20     16.5117  37.6835   3.5800   F         1 RES1   0.0000
    21 F21     16.2631  38.1078   1.5009   F         1 RES1   0.0000
    22 F22     18.2507  37.6825   2.3301   F         1 RES1   0.0000
    23 C23     21.7977  40.2369   0.3895   C.2       1 RES1   0.0000
    24 O24     21.5631  39.6079  -0.7705   O.2       1 RES1   0.0000
    25 N25     23.0683  40.4927   0.7086   N.am      1 RES1   0.0000
    26 C26     25.0997  42.6845   1.5238   C.3       1 RES1   0.0000
    27 C27     26.2102  43.3175   2.3594   C.3       1 RES1   0.0000
@<TRIPOS>BOND
     1     1     2    1
     2     2     3    1
     3     3     4    1
     4     2     5    1
     5     5     6    1
     6     6     7    1
     7     7     8    1
     8     8     9    2
     9     9    10    1
    10    10    11    2
    11    11    12    1
    12    12    13    1
    13    13    14    2
    14    14    15    1
    15    15    16    2
    16    16    17    1
    17    17    18    2
    18    18    19    1
    19    19    20    1
    20    19    21    1
    21    19    22    1
    22    11    23    1
    23    23    24    2
    24    23    25   am
    25     7    26    1
    26    26    27    1
    27    27     2    1
    28    25     8    1
    29    18    13    1
@<TRIPOS>SUBSTRUCTURE
     1 RES1        1 GROUP             0 ****  ****    0  
@<TRIPOS>MOLECULE
ligand_64
    27    29     1     0     0
SMALL
USER_CHARGES
****
Generated from the CSD

@<TRIPOS>ATOM
     1 C1      28.1252  41.9455   1.4236   C.3       1 RES1   0.0000
     2 C2      27.3070  42.3390   2.6920   C.3       1 RES1   0.0000
     3 C3      28.3100  43.0110   3.6710   C.3       1 RES1   0.0000
     4 N4      27.7278  43.4539   4.9286   N.3       1 RES1   1.0000
     5 C5      26.7246  41.0737   3.2928   C.3       1 RES1   0.0000
     6 C6      25.6253  40.4962   2.4340   C.3       1 RES1   0.0000
     7 N7      24.5785  41.4883   2.1905   N.pl3     1 RES1   0.0000
     8 C8      23.2849  41.0514   1.8974   C.2       1 RES1   0.0000
     9 N9      22.3336  41.3671   2.7805   N.2       1 RES1   0.0000
    10 C10     21.0544  41.0629   2.4959   C.2       1 RES1   0.0000
    11 C11     20.7094  40.4911   1.2662   C.2       1 RES1   0.0000
    12 S12     19.0335  40.2063   0.7736   S.3       1 RES1   0.0000
    13 C13     17.9889  40.6884   2.1314   C.2       1 RES1   0.0000
    14 C14     18.0323  39.9453   3.3397   C.2       1 RES1   0.0000
    15 C15     17.1670  40.2599   4.4066   C.2       1 RES1   0.0000
    16 C16     16.3066  41.3508   4.2582   C.2       1 RES1   0.0000
    17 N17     16.2582  42.0886   3.1268   N.2       1 RES1   0.0000
    18 C18     17.0798  41.7896   2.0766   C.2       1 RES1   0.0000
    19 C19     16.9722  42.7378   0.8791   C.3       1 RES1   0.0000
    20 F20     15.8675  43.4496   1.0152   F         1 RES1   0.0000
    21 F21     17.9936  43.5997   0.8676   F         1 RES1   0.0000
    22 F22     16.8886  42.1123  -0.3098   F         1 RES1   0.0000
    23 C23     21.7977  40.2369   0.3895   C.2       1 RES1   0.0000
    24 O24     21.5631  39.6079  -0.7705   O.2       1 RES1   0.0000
    25 N25     23.0683  40.4927   0.7086   N.am      1 RES1   0.0000
    26 C26     25.0997  42.6845   1.5238   C.3       1 RES1   0.0000
    27 C27     26.2102  43.3175   2.3594   C.3       1 RES1   0.0000
@<TRIPOS>BOND
     1     1     2    1
     2     2     3    1
     3     3     4    1
     4     2     5    1
     5     5     6    1
     6     6     7    1
     7     7     8    1
     8     8     9    2
     9     9    10    1
    10    10    11    2
    11    11    12    1
    12    12    13    1
    13    13    14    2
    14    14    15    1
    15    15    16    2
    16    16    17    1
    17    17    18    2
    18    18    19    1
    19    19    20    1
    20    19    21    1
    21    19    22    1
    22    11    23    1
    23    23    24    2
    24    23    25   am
    25     7    26    1
    26    26    27    1
    27    27     2    1
    28    25     8    1
    29    18    13    1
@<TRIPOS>SUBSTRUCTURE
     1 RES1        1 GROUP             0 ****  ****    0  
@<TRIPOS>MOLECULE
ligand_65
    27    29     1     0     0
SMALL
USER_CHARGES
****
Generated from the CSD

@<TRIPOS>ATOM
     1 C1      26.7313  41.0947   3.4358   C.3       1 RES1   0.0000
     2 C2      27.3070  42.3390   2.6920   C.3       1 RES1   0.0000
     3 C3      28.3100  43.0110   3.6710   C.3       1 RES1   0.0000
     4 N4      27.7277  43.4545   4.9283   N.3       1 RES1   1.0000
     5 C5      26.1561  43.2721   2.3663   C.3       1 RES1   0.0000
     6 C6      25.2604  42.7077   1.2897   C.3       1 RES1   0.0000
     7 N7      26.0291  42.3872   0.0873   N.pl3     1 RES1   0.0000
     8 C8      25.3778  42.3640  -1.1479   C.2       1 RES1   0.0000
     9 N9      25.3287  41.1854  -1.7749   N.2       1 RES1   0.0000
    10 C10     24.6232  41.0841  -2.9159   C.2       1 RES1   0.0000
    11 C11     23.8911  42.1714  -3.4057   C.2       1 RES1   0.0000
    12 S12     22.8269  42.0583  -4.8153   S.3       1 RES1   0.0000
    13 C13     22.9632  40.4034  -5.4556   C.2       1 RES1   0.0000
    14 C14     22.5023  39.3144  -4.6709   C.2       1 RES1   0.0000
    15 C15     22.6607  37.9884  -5.1211   C.2       1 RES1   0.0000
    16 C16     23.2353  37.7829  -6.3780   C.2       1 RES1   0.0000
    17 N17     23.6648  38.8018  -7.1553   N.2       1 RES1   0.0000
    18 C18     23.5323  40.0934  -6.7291   C.2       1 RES1   0.0000
    19 C19     23.9996  41.1564  -7.7273   C.3       1 RES1   0.0000
    20 F20     24.7259  40.5591  -8.6553   F         1 RES1   0.0000
    21 F21     22.9542  41.7126  -8.3469   F         1 RES1   0.0000
    22 F22     24.7727  42.1155  -7.1850   F         1 RES1   0.0000
    23 C23     23.9845  43.3612  -2.6355   C.2       1 RES1   0.0000
    24 O24     23.3866  44.4734  -3.0846   O.2       1 RES1   0.0000
    25 N25     24.7338  43.4627  -1.5355   N.am      1 RES1   0.0000
    26 C26     27.0903  41.4135   0.3569   C.3       1 RES1   0.0000
    27 C27     28.0353  41.9417   1.4339   C.3       1 RES1   0.0000
@<TRIPOS>BOND
     1     1     2    1
     2     2     3    1
     3     3     4    1
     4     2     5    1
     5     5     6    1
     6     6     7    1
     7     7     8    1
     8     8     9    2
     9     9    10    1
    10    10    11    2
    11    11    12    1
    12    12    13    1
    13    13    14    2
    14    14    15    1
    15    15    16    2
    16    16    17    1
    17    17    18    2
    18    18    19    1
    19    19    20    1
    20    19    21    1
    21    19    22    1
    22    11    23    1
    23    23    24    2
    24    23    25   am
    25     7    26    1
    26    26    27    1
    27    27     2    1
    28    25     8    1
    29    18    13    1
@<TRIPOS>SUBSTRUCTURE
     1 RES1        1 GROUP             0 ****  ****    0  
@<TRIPOS>MOLECULE
ligand_66
    27    29     1     0     0
SMALL
USER_CHARGES
****
Generated from the CSD

@<TRIPOS>ATOM
     1 C1      26.7313  41.0947   3.4358   C.3       1 RES1   0.0000
     2 C2      27.3070  42.3390   2.6920   C.3       1 RES1   0.0000
     3 C3      28.3100  43.0110   3.6710   C.3       1 RES1   0.0000
     4 N4      27.7273  43.4559   4.9277   N.3       1 RES1   1.0000
     5 C5      26.1561  43.2721   2.3663   C.3       1 RES1   0.0000
     6 C6      25.2604  42.7077   1.2897   C.3       1 RES1   0.0000
     7 N7      26.0291  42.3872   0.0873   N.pl3     1 RES1   0.0000
     8 C8      25.3778  42.3640  -1.1479   C.2       1 RES1   0.0000
     9 N9      25.3287  41.1854  -1.7749   N.2       1 RES1   0.0000
    10 C10     24.6232  41.0841  -2.9159   C.2       1 RES1   0.0000
    11 C11     23.8911  42.1714  -3.4057   C.2       1 RES1   0.0000
    12 S12     22.8269  42.0583  -4.8153   S.3       1 RES1   0.0000
    13 C13     22.9703  40.4062  -5.4611   C.2       1 RES1   0.0000
    14 C14     24.2001  39.9876  -6.0325   C.2       1 RES1   0.0000
    15 C15     24.3224  38.7100  -6.6146   C.2       1 RES1   0.0000
    16 C16     23.2182  37.8551  -6.5668   C.2       1 RES1   0.0000
    17 N17     22.0412  38.2197  -6.0113   N.2       1 RES1   0.0000
    18 C18     21.8998  39.4596  -5.4546   C.2       1 RES1   0.0000
    19 C19     20.5396  39.7265  -4.8039   C.3       1 RES1   0.0000
    20 F20     19.6966  38.7960  -5.2149   F         1 RES1   0.0000
    21 F21     20.6240  39.6179  -3.4745   F         1 RES1   0.0000
    22 F22     19.9987  40.9146  -5.1318   F         1 RES1   0.0000
    23 C23     23.9845  43.3612  -2.6355   C.2       1 RES1   0.0000
    24 O24     23.3866  44.4734  -3.0846   O.2       1 RES1   0.0000
    25 N25     24.7338  43.4627  -1.5355   N.am      1 RES1   0.0000
    26 C26     27.0903  41.4135   0.3569   C.3       1 RES1   0.0000
    27 C27     28.0353  41.9417   1.4339   C.3       1 RES1   0.0000
@<TRIPOS>BOND
     1     1     2    1
     2     2     3    1
     3     3     4    1
     4     2     5    1
     5     5     6    1
     6     6     7    1
     7     7     8    1
     8     8     9    2
     9     9    10    1
    10    10    11    2
    11    11    12    1
    12    12    13    1
    13    13    14    2
    14    14    15    1
    15    15    16    2
    16    16    17    1
    17    17    18    2
    18    18    19    1
    19    19    20    1
    20    19    21    1
    21    19    22    1
    22    11    23    1
    23    23    24    2
    24    23    25   am
    25     7    26    1
    26    26    27    1
    27    27     2    1
    28    25     8    1
    29    18    13    1
@<TRIPOS>SUBSTRUCTURE
     1 RES1        1 GROUP             0 ****  ****    0  
@<TRIPOS>MOLECULE
ligand_67
    27    29     1     0     0
SMALL
USER_CHARGES
****
Generated from the CSD

@<TRIPOS>ATOM
     1 C1      26.7313  41.0947   3.4358   C.3       1 RES1   0.0000
     2 C2      27.3070  42.3390   2.6920   C.3       1 RES1   0.0000
     3 C3      28.3100  43.0110   3.6710   C.3       1 RES1   0.0000
     4 N4      27.7277  43.4545   4.9283   N.3       1 RES1   1.0000
     5 C5      26.1561  43.2721   2.3663   C.3       1 RES1   0.0000
     6 C6      25.2604  42.7077   1.2897   C.3       1 RES1   0.0000
     7 N7      26.0291  42.3872   0.0873   N.pl3     1 RES1   0.0000
     8 C8      25.3778  42.3640  -1.1479   C.2       1 RES1   0.0000
     9 N9      24.4274  41.4384  -1.3044   N.2       1 RES1   0.0000
    10 C10     23.6973  41.4399  -2.4344   C.2       1 RES1   0.0000
    11 C11     23.8752  42.4347  -3.4023   C.2       1 RES1   0.0000
    12 S12     22.8469  42.5776  -4.8356   S.3       1 RES1   0.0000
    13 C13     21.6908  41.2251  -4.8002   C.2       1 RES1   0.0000
    14 C14     20.7204  41.1671  -3.7663   C.2       1 RES1   0.0000
    15 C15     19.8375  40.0727  -3.6718   C.2       1 RES1   0.0000
    16 C16     19.9128  39.0784  -4.6505   C.2       1 RES1   0.0000
    17 N17     20.8132  39.1177  -5.6578   N.2       1 RES1   0.0000
    18 C18     21.6866  40.1640  -5.7573   C.2       1 RES1   0.0000
    19 C19     22.6123  40.1218  -6.9763   C.3       1 RES1   0.0000
    20 F20     22.5671  38.9037  -7.4859   F         1 RES1   0.0000
    21 F21     22.1805  40.9586  -7.9248   F         1 RES1   0.0000
    22 F22     23.9030  40.3783  -6.6937   F         1 RES1   0.0000
    23 C23     24.8853  43.3898  -3.1110   C.2       1 RES1   0.0000
    24 O24     25.1804  44.3220  -4.0275   O.2       1 RES1   0.0000
    25 N25     25.6402  43.3429  -2.0112   N.am      1 RES1   0.0000
    26 C26     27.0903  41.4135   0.3569   C.3       1 RES1   0.0000
    27 C27     28.0353  41.9417   1.4339   C.3       1 RES1   0.0000
@<TRIPOS>BOND
     1     1     2    1
     2     2     3    1
     3     3     4    1
     4     2     5    1
     5     5     6    1
     6     6     7    1
     7     7     8    1
     8     8     9    2
     9     9    10    1
    10    10    11    2
    11    11    12    1
    12    12    13    1
    13    13    14    2
    14    14    15    1
    15    15    16    2
    16    16    17    1
    17    17    18    2
    18    18    19    1
    19    19    20    1
    20    19    21    1
    21    19    22    1
    22    11    23    1
    23    23    24    2
    24    23    25   am
    25     7    26    1
    26    26    27    1
    27    27     2    1
    28    25     8    1
    29    18    13    1
@<TRIPOS>SUBSTRUCTURE
     1 RES1        1 GROUP             0 ****  ****    0  
@<TRIPOS>MOLECULE
ligand_68
    27    29     1     0     0
SMALL
USER_CHARGES
****
Generated from the CSD

@<TRIPOS>ATOM
     1 C1      26.7313  41.0947   3.4358   C.3       1 RES1   0.0000
     2 C2      27.3070  42.3390   2.6920   C.3       1 RES1   0.0000
     3 C3      28.3100  43.0110   3.6710   C.3       1 RES1   0.0000
     4 N4      27.7273  43.4559   4.9277   N.3       1 RES1   1.0000
     5 C5      26.1561  43.2721   2.3663   C.3       1 RES1   0.0000
     6 C6      25.2604  42.7077   1.2897   C.3       1 RES1   0.0000
     7 N7      26.0291  42.3872   0.0873   N.pl3     1 RES1   0.0000
     8 C8      25.3778  42.3640  -1.1479   C.2       1 RES1   0.0000
     9 N9      24.4274  41.4384  -1.3044   N.2       1 RES1   0.0000
    10 C10     23.6973  41.4399  -2.4344   C.2       1 RES1   0.0000
    11 C11     23.8752  42.4347  -3.4023   C.2       1 RES1   0.0000
    12 S12     22.8469  42.5776  -4.8356   S.3       1 RES1   0.0000
    13 C13     21.6969  41.2198  -4.8051   C.2       1 RES1   0.0000
    14 C14     22.1807  39.8954  -4.9660   C.2       1 RES1   0.0000
    15 C15     21.2874  38.8066  -5.0163   C.2       1 RES1   0.0000
    16 C16     19.9239  39.0643  -4.8526   C.2       1 RES1   0.0000
    17 N17     19.4368  40.3129  -4.6776   N.2       1 RES1   0.0000
    18 C18     20.2867  41.3823  -4.6403   C.2       1 RES1   0.0000
    19 C19     19.6171  42.7333  -4.3741   C.3       1 RES1   0.0000
    20 F20     18.3166  42.5920  -4.5588   F         1 RES1   0.0000
    21 F21     19.7934  43.1039  -3.1022   F         1 RES1   0.0000
    22 F22     20.0228  43.7179  -5.1973   F         1 RES1   0.0000
    23 C23     24.8853  43.3898  -3.1110   C.2       1 RES1   0.0000
    24 O24     25.1804  44.3220  -4.0275   O.2       1 RES1   0.0000
    25 N25     25.6402  43.3429  -2.0112   N.am      1 RES1   0.0000
    26 C26     27.0903  41.4135   0.3569   C.3       1 RES1   0.0000
    27 C27     28.0353  41.9417   1.4339   C.3       1 RES1   0.0000
@<TRIPOS>BOND
     1     1     2    1
     2     2     3    1
     3     3     4    1
     4     2     5    1
     5     5     6    1
     6     6     7    1
     7     7     8    1
     8     8     9    2
     9     9    10    1
    10    10    11    2
    11    11    12    1
    12    12    13    1
    13    13    14    2
    14    14    15    1
    15    15    16    2
    16    16    17    1
    17    17    18    2
    18    18    19    1
    19    19    20    1
    20    19    21    1
    21    19    22    1
    22    11    23    1
    23    23    24    2
    24    23    25   am
    25     7    26    1
    26    26    27    1
    27    27     2    1
    28    25     8    1
    29    18    13    1
@<TRIPOS>SUBSTRUCTURE
     1 RES1        1 GROUP             0 ****  ****    0  
@<TRIPOS>MOLECULE
ligand_69
    27    29     1     0     0
SMALL
USER_CHARGES
****
Generated from the CSD

@<TRIPOS>ATOM
     1 C1      26.7571  41.0749   3.4226   C.3       1 RES1   0.0000
     2 C2      27.3089  42.3372   2.6911   C.3       1 RES1   0.0000
     3 C3      28.2994  43.0183   3.6764   C.3       1 RES1   0.0000
     4 N4      27.7094  43.4381   4.9383   N.3       1 RES1   1.0000
     5 C5      26.1404  43.2516   2.3750   C.3       1 RES1   0.0000
     6 C6      25.2551  42.6812   1.2930   C.3       1 RES1   0.0000
     7 N7      26.0291  42.3872   0.0873   N.pl3     1 RES1   0.0000
     8 C8      25.3778  42.3640  -1.1479   C.2       1 RES1   0.0000
     9 N9      24.8700  43.5226  -1.5771   N.2       1 RES1   0.0000
    10 C10     24.3259  43.5793  -2.8061   C.2       1 RES1   0.0000
    11 C11     24.3525  42.4668  -3.6545   C.2       1 RES1   0.0000
    12 S12     23.7893  42.5218  -5.3315   S.3       1 RES1   0.0000
    13 C13     23.1581  44.1589  -5.6291   C.2       1 RES1   0.0000
    14 C14     24.0487  45.2635  -5.5981   C.2       1 RES1   0.0000
    15 C15     23.5670  46.5779  -5.7605   C.2       1 RES1   0.0000
    16 C16     22.2023  46.7549  -6.0024   C.2       1 RES1   0.0000
    17 N17     21.3344  45.7202  -6.0573   N.2       1 RES1   0.0000
    18 C18     21.7811  44.4399  -5.8880   C.2       1 RES1   0.0000
    19 C19     20.7105  43.3551  -6.0351   C.3       1 RES1   0.0000
    20 F20     19.5252  43.9358  -5.9778   F         1 RES1   0.0000
    21 F21     20.7992  42.7648  -7.2309   F         1 RES1   0.0000
    22 F22     20.7358  42.4244  -5.0631   F         1 RES1   0.0000
    23 C23     24.9535  41.3019  -3.1076   C.2       1 RES1   0.0000
    24 O24     24.9381  40.1677  -3.8216   O.2       1 RES1   0.0000
    25 N25     25.4391  41.2444  -1.8656   N.am      1 RES1   0.0000
    26 C26     27.1086  41.4310   0.3469   C.3       1 RES1   0.0000
    27 C27     28.0440  41.9663   1.4289   C.3       1 RES1   0.0000
@<TRIPOS>BOND
     1     1     2    1
     2     2     3    1
     3     3     4    1
     4     2     5    1
     5     5     6    1
     6     6     7    1
     7     7     8    1
     8     8     9    2
     9     9    10    1
    10    10    11    2
    11    11    12    1
    12    12    13    1
    13    13    14    2
    14    14    15    1
    15    15    16    2
    16    16    17    1
    17    17    18    2
    18    18    19    1
    19    19    20    1
    20    19    21    1
    21    19    22    1
    22    11    23    1
    23    23    24    2
    24    23    25   am
    25     7    26    1
    26    26    27    1
    27    27     2    1
    28    25     8    1
    29    18    13    1
@<TRIPOS>SUBSTRUCTURE
     1 RES1        1 GROUP             0 ****  ****    0  
@<TRIPOS>MOLECULE
ligand_70
    27    29     1     0     0
SMALL
USER_CHARGES
****
Generated from the CSD

@<TRIPOS>ATOM
     1 C1      26.7541  41.0771   3.4241   C.3       1 RES1   0.0000
     2 C2      27.3086  42.3374   2.6912   C.3       1 RES1   0.0000
     3 C3      28.3006  43.0174   3.6758   C.3       1 RES1   0.0000
     4 N4      27.7113  43.4407   4.9368   N.3       1 RES1   1.0000
     5 C5      26.1422  43.2539   2.3740   C.3       1 RES1   0.0000
     6 C6      25.2556  42.6842   1.2926   C.3       1 RES1   0.0000
     7 N7      26.0291  42.3872   0.0873   N.pl3     1 RES1   0.0000
     8 C8      25.3778  42.3640  -1.1479   C.2       1 RES1   0.0000
     9 N9      24.8700  43.5226  -1.5771   N.2       1 RES1   0.0000
    10 C10     24.3259  43.5793  -2.8061   C.2       1 RES1   0.0000
    11 C11     24.3525  42.4668  -3.6545   C.2       1 RES1   0.0000
    12 S12     23.7893  42.5218  -5.3315   S.3       1 RES1   0.0000
    13 C13     23.1499  44.1562  -5.6264   C.2       1 RES1   0.0000
    14 C14     21.9772  44.5769  -4.9468   C.2       1 RES1   0.0000
    15 C15     21.4080  45.8385  -5.2122   C.2       1 RES1   0.0000
    16 C16     22.0581  46.6772  -6.1212   C.2       1 RES1   0.0000
    17 N17     23.1871  46.3109  -6.7679   N.2       1 RES1   0.0000
    18 C18     23.7455  45.0858  -6.5337   C.2       1 RES1   0.0000
    19 C19     25.0550  44.8171  -7.2805   C.3       1 RES1   0.0000
    20 F20     25.1777  45.7217  -8.2355   F         1 RES1   0.0000
    21 F21     26.1022  44.9665  -6.4637   F         1 RES1   0.0000
    22 F22     25.1087  43.6115  -7.8765   F         1 RES1   0.0000
    23 C23     24.9535  41.3019  -3.1076   C.2       1 RES1   0.0000
    24 O24     24.9381  40.1677  -3.8216   O.2       1 RES1   0.0000
    25 N25     25.4391  41.2444  -1.8656   N.am      1 RES1   0.0000
    26 C26     27.1065  41.4290   0.3480   C.3       1 RES1   0.0000
    27 C27     28.0430  41.9635   1.4294   C.3       1 RES1   0.0000
@<TRIPOS>BOND
     1     1     2    1
     2     2     3    1
     3     3     4    1
     4     2     5    1
     5     5     6    1
     6     6     7    1
     7     7     8    1
     8     8     9    2
     9     9    10    1
    10    10    11    2
    11    11    12    1
    12    12    13    1
    13    13    14    2
    14    14    15    1
    15    15    16    2
    16    16    17    1
    17    17    18    2
    18    18    19    1
    19    19    20    1
    20    19    21    1
    21    19    22    1
    22    11    23    1
    23    23    24    2
    24    23    25   am
    25     7    26    1
    26    26    27    1
    27    27     2    1
    28    25     8    1
    29    18    13    1
@<TRIPOS>SUBSTRUCTURE
     1 RES1        1 GROUP             0 ****  ****    0  
@<TRIPOS>MOLECULE
ligand_71
    27    29     1     0     0
SMALL
USER_CHARGES
****
Generated from the CSD

@<TRIPOS>ATOM
     1 C1      26.7313  41.0947   3.4358   C.3       1 RES1   0.0000
     2 C2      27.3070  42.3390   2.6920   C.3       1 RES1   0.0000
     3 C3      28.3100  43.0110   3.6710   C.3       1 RES1   0.0000
     4 N4      27.7277  43.4545   4.9283   N.3       1 RES1   1.0000
     5 C5      26.1561  43.2721   2.3663   C.3       1 RES1   0.0000
     6 C6      25.2604  42.7077   1.2897   C.3       1 RES1   0.0000
     7 N7      26.0291  42.3872   0.0873   N.pl3     1 RES1   0.0000
     8 C8      25.3778  42.3640  -1.1479   C.2       1 RES1   0.0000
     9 N9      25.7713  43.2697  -2.0475   N.2       1 RES1   0.0000
    10 C10     25.2519  43.2236  -3.2876   C.2       1 RES1   0.0000
    11 C11     24.3684  42.2035  -3.6580   C.2       1 RES1   0.0000
    12 S12     23.7693  42.0025  -5.3111   S.3       1 RES1   0.0000
    13 C13     24.4308  43.3373  -6.2846   C.2       1 RES1   0.0000
    14 C14     25.8311  43.4107  -6.5032   C.2       1 RES1   0.0000
    15 C15     26.3910  44.4935  -7.2104   C.2       1 RES1   0.0000
    16 C16     25.5256  45.4597  -7.7301   C.2       1 RES1   0.0000
    17 N17     24.1865  45.4047  -7.5547   N.2       1 RES1   0.0000
    18 C18     23.6272  44.3696  -6.8597   C.2       1 RES1   0.0000
    19 C19     22.0979  44.3902  -6.7855   C.3       1 RES1   0.0000
    20 F20     21.6841  45.5919  -7.1463   F         1 RES1   0.0000
    21 F21     21.5725  43.5193  -7.6524   F         1 RES1   0.0000
    22 F22     21.6056  44.1623  -5.5537   F         1 RES1   0.0000
    23 C23     24.0527  41.2732  -2.6322   C.2       1 RES1   0.0000
    24 O24     23.1444  40.3191  -2.8787   O.2       1 RES1   0.0000
    25 N25     24.5327  41.3643  -1.3900   N.am      1 RES1   0.0000
    26 C26     27.0903  41.4135   0.3569   C.3       1 RES1   0.0000
    27 C27     28.0353  41.9417   1.4339   C.3       1 RES1   0.0000
@<TRIPOS>BOND
     1     1     2    1
     2     2     3    1
     3     3     4    1
     4     2     5    1
     5     5     6    1
     6     6     7    1
     7     7     8    1
     8     8     9    2
     9     9    10    1
    10    10    11    2
    11    11    12    1
    12    12    13    1
    13    13    14    2
    14    14    15    1
    15    15    16    2
    16    16    17    1
    17    17    18    2
    18    18    19    1
    19    19    20    1
    20    19    21    1
    21    19    22    1
    22    11    23    1
    23    23    24    2
    24    23    25   am
    25     7    26    1
    26    26    27    1
    27    27     2    1
    28    25     8    1
    29    18    13    1
@<TRIPOS>SUBSTRUCTURE
     1 RES1        1 GROUP             0 ****  ****    0  
@<TRIPOS>MOLECULE
ligand_72
    27    29     1     0     0
SMALL
USER_CHARGES
****
Generated from the CSD

@<TRIPOS>ATOM
     1 C1      26.7313  41.0947   3.4358   C.3       1 RES1   0.0000
     2 C2      27.3070  42.3390   2.6920   C.3       1 RES1   0.0000
     3 C3      28.3100  43.0110   3.6710   C.3       1 RES1   0.0000
     4 N4      27.7273  43.4559   4.9277   N.3       1 RES1   1.0000
     5 C5      26.1561  43.2721   2.3663   C.3       1 RES1   0.0000
     6 C6      25.2604  42.7077   1.2897   C.3       1 RES1   0.0000
     7 N7      26.0291  42.3872   0.0873   N.pl3     1 RES1   0.0000
     8 C8      25.3778  42.3640  -1.1479   C.2       1 RES1   0.0000
     9 N9      25.7713  43.2697  -2.0475   N.2       1 RES1   0.0000
    10 C10     25.2519  43.2236  -3.2876   C.2       1 RES1   0.0000
    11 C11     24.3684  42.2035  -3.6580   C.2       1 RES1   0.0000
    12 S12     23.7693  42.0025  -5.3111   S.3       1 RES1   0.0000
    13 C13     24.4232  43.3426  -6.2825   C.2       1 RES1   0.0000
    14 C14     23.9965  44.6691  -6.0133   C.2       1 RES1   0.0000
    15 C15     24.4430  45.7419  -6.8106   C.2       1 RES1   0.0000
    16 C16     25.3524  45.4680  -7.8354   C.2       1 RES1   0.0000
    17 N17     25.7914  44.2177  -8.1016   N.2       1 RES1   0.0000
    18 C18     25.3585  43.1632  -7.3480   C.2       1 RES1   0.0000
    19 C19     25.9775  41.8103  -7.7103   C.3       1 RES1   0.0000
    20 F20     26.5578  41.9259  -8.8915   F         1 RES1   0.0000
    21 F21     26.9328  41.4802  -6.8359   F         1 RES1   0.0000
    22 F22     25.0845  40.8083  -7.8113   F         1 RES1   0.0000
    23 C23     24.0527  41.2732  -2.6322   C.2       1 RES1   0.0000
    24 O24     23.1444  40.3191  -2.8787   O.2       1 RES1   0.0000
    25 N25     24.5327  41.3643  -1.3900   N.am      1 RES1   0.0000
    26 C26     27.0903  41.4135   0.3569   C.3       1 RES1   0.0000
    27 C27     28.0353  41.9417   1.4339   C.3       1 RES1   0.0000
@<TRIPOS>BOND
     1     1     2    1
     2     2     3    1
     3     3     4    1
     4     2     5    1
     5     5     6    1
     6     6     7    1
     7     7     8    1
     8     8     9    2
     9     9    10    1
    10    10    11    2
    11    11    12    1
    12    12    13    1
    13    13    14    2
    14    14    15    1
    15    15    16    2
    16    16    17    1
    17    17    18    2
    18    18    19    1
    19    19    20    1
    20    19    21    1
    21    19    22    1
    22    11    23    1
    23    23    24    2
    24    23    25   am
    25     7    26    1
    26    26    27    1
    27    27     2    1
    28    25     8    1
    29    18    13    1
@<TRIPOS>SUBSTRUCTURE
     1 RES1        1 GROUP             0 ****  ****    0  
@<TRIPOS>MOLECULE
ligand_73
    27    29     1     0     0
SMALL
USER_CHARGES
****
Generated from the CSD

@<TRIPOS>ATOM
     1 C1      26.2108  43.4049   2.3833   C.3       1 RES1   0.0000
     2 C2      27.3070  42.3390   2.6920   C.3       1 RES1   0.0000
     3 C3      28.3100  43.0110   3.6710   C.3       1 RES1   0.0000
     4 N4      27.7283  43.4515   4.9297   N.3       1 RES1   1.0000
     5 C5      27.9864  41.9652   1.3882   C.3       1 RES1   0.0000
     6 C6      27.0776  41.1615   0.4893   C.3       1 RES1   0.0000
     7 N7      26.5816  39.9712   1.1796   N.pl3     1 RES1   0.0000
     8 C8      26.1875  38.8643   0.4249   C.2       1 RES1   0.0000
     9 N9      24.8979  38.5228   0.4942   N.2       1 RES1   0.0000
    10 C10     24.4439  37.5310  -0.2933   C.2       1 RES1   0.0000
    11 C11     25.2855  36.9114  -1.2238   C.2       1 RES1   0.0000
    12 S12     24.7124  35.7080  -2.3880   S.3       1 RES1   0.0000
    13 C13     22.9836  35.4348  -2.0659   C.2       1 RES1   0.0000
    14 C14     22.0610  36.4915  -2.2811   C.2       1 RES1   0.0000
    15 C15     20.6966  36.3272  -1.9686   C.2       1 RES1   0.0000
    16 C16     20.2745  35.0835  -1.4917   C.2       1 RES1   0.0000
    17 N17     21.1273  34.0533  -1.2961   N.2       1 RES1   0.0000
    18 C18     22.4560  34.1987  -1.5803   C.2       1 RES1   0.0000
    19 C19     23.3041  32.9404  -1.3751   C.3       1 RES1   0.0000
    20 F20     22.6005  32.0817  -0.6588   F         1 RES1   0.0000
    21 F21     23.5642  32.3516  -2.5464   F         1 RES1   0.0000
    22 F22     24.4525  33.1561  -0.7071   F         1 RES1   0.0000
    23 C23     26.6252  37.3832  -1.2376   C.2       1 RES1   0.0000
    24 O24     27.5172  36.7805  -2.0359   O.2       1 RES1   0.0000
    25 N25     27.0752  38.3298  -0.4110   N.am      1 RES1   0.0000
    26 C26     25.8386  40.3111   2.3960   C.3       1 RES1   0.0000
    27 C27     26.7188  41.1168   3.3489   C.3       1 RES1   0.0000
@<TRIPOS>BOND
     1     1     2    1
     2     2     3    1
     3     3     4    1
     4     2     5    1
     5     5     6    1
     6     6     7    1
     7     7     8    1
     8     8     9    2
     9     9    10    1
    10    10    11    2
    11    11    12    1
    12    12    13    1
    13    13    14    2
    14    14    15    1
    15    15    16    2
    16    16    17    1
    17    17    18    2
    18    18    19    1
    19    19    20    1
    20    19    21    1
    21    19    22    1
    22    11    23    1
    23    23    24    2
    24    23    25   am
    25     7    26    1
    26    26    27    1
    27    27     2    1
    28    25     8    1
    29    18    13    1
@<TRIPOS>SUBSTRUCTURE
     1 RES1        1 GROUP             0 ****  ****    0  
@<TRIPOS>MOLECULE
ligand_74
    27    29     1     0     0
SMALL
USER_CHARGES
****
Generated from the CSD

@<TRIPOS>ATOM
     1 C1      26.2108  43.4049   2.3833   C.3       1 RES1   0.0000
     2 C2      27.3070  42.3390   2.6920   C.3       1 RES1   0.0000
     3 C3      28.3100  43.0110   3.6710   C.3       1 RES1   0.0000
     4 N4      27.7286  43.4502   4.9303   N.3       1 RES1   1.0000
     5 C5      27.9864  41.9652   1.3882   C.3       1 RES1   0.0000
     6 C6      27.0776  41.1615   0.4893   C.3       1 RES1   0.0000
     7 N7      26.5816  39.9712   1.1796   N.pl3     1 RES1   0.0000
     8 C8      26.1875  38.8643   0.4249   C.2       1 RES1   0.0000
     9 N9      24.8979  38.5228   0.4942   N.2       1 RES1   0.0000
    10 C10     24.4439  37.5310  -0.2933   C.2       1 RES1   0.0000
    11 C11     25.2855  36.9114  -1.2238   C.2       1 RES1   0.0000
    12 S12     24.7124  35.7080  -2.3880   S.3       1 RES1   0.0000
    13 C13     22.9858  35.4279  -2.0599   C.2       1 RES1   0.0000
    14 C14     22.6011  34.8110  -0.8410   C.2       1 RES1   0.0000
    15 C15     21.2479  34.5129  -0.5839   C.2       1 RES1   0.0000
    16 C16     20.2975  34.8872  -1.5373   C.2       1 RES1   0.0000
    17 N17     20.6330  35.4939  -2.6976   N.2       1 RES1   0.0000
    18 C18     21.9415  35.7781  -2.9703   C.2       1 RES1   0.0000
    19 C19     22.1824  36.5216  -4.2871   C.3       1 RES1   0.0000
    20 F20     21.0838  36.4354  -5.0158   F         1 RES1   0.0000
    21 F21     22.4009  37.8206  -4.0613   F         1 RES1   0.0000
    22 F22     23.1831  36.0122  -5.0292   F         1 RES1   0.0000
    23 C23     26.6252  37.3832  -1.2376   C.2       1 RES1   0.0000
    24 O24     27.5172  36.7805  -2.0359   O.2       1 RES1   0.0000
    25 N25     27.0752  38.3298  -0.4110   N.am      1 RES1   0.0000
    26 C26     25.8386  40.3111   2.3960   C.3       1 RES1   0.0000
    27 C27     26.7188  41.1168   3.3489   C.3       1 RES1   0.0000
@<TRIPOS>BOND
     1     1     2    1
     2     2     3    1
     3     3     4    1
     4     2     5    1
     5     5     6    1
     6     6     7    1
     7     7     8    1
     8     8     9    2
     9     9    10    1
    10    10    11    2
    11    11    12    1
    12    12    13    1
    13    13    14    2
    14    14    15    1
    15    15    16    2
    16    16    17    1
    17    17    18    2
    18    18    19    1
    19    19    20    1
    20    19    21    1
    21    19    22    1
    22    11    23    1
    23    23    24    2
    24    23    25   am
    25     7    26    1
    26    26    27    1
    27    27     2    1
    28    25     8    1
    29    18    13    1
@<TRIPOS>SUBSTRUCTURE
     1 RES1        1 GROUP             0 ****  ****    0  
@<TRIPOS>MOLECULE
ligand_75
    27    29     1     0     0
SMALL
USER_CHARGES
****
Generated from the CSD

@<TRIPOS>ATOM
     1 C1      26.2108  43.4049   2.3833   C.3       1 RES1   0.0000
     2 C2      27.3070  42.3390   2.6920   C.3       1 RES1   0.0000
     3 C3      28.3100  43.0110   3.6710   C.3       1 RES1   0.0000
     4 N4      27.7283  43.4515   4.9297   N.3       1 RES1   1.0000
     5 C5      27.9864  41.9652   1.3882   C.3       1 RES1   0.0000
     6 C6      27.0776  41.1615   0.4893   C.3       1 RES1   0.0000
     7 N7      26.5816  39.9712   1.1796   N.pl3     1 RES1   0.0000
     8 C8      26.1875  38.8643   0.4249   C.2       1 RES1   0.0000
     9 N9      25.1401  39.0368  -0.3861   N.2       1 RES1   0.0000
    10 C10     24.7847  38.0363  -1.2122   C.2       1 RES1   0.0000
    11 C11     25.5382  36.8589  -1.2787   C.2       1 RES1   0.0000
    12 S12     25.2107  35.5717  -2.4483   S.3       1 RES1   0.0000
    13 C13     23.7713  36.0498  -3.3792   C.2       1 RES1   0.0000
    14 C14     23.8377  37.1859  -4.2272   C.2       1 RES1   0.0000
    15 C15     22.6950  37.6298  -4.9224   C.2       1 RES1   0.0000
    16 C16     21.5157  36.8919  -4.7919   C.2       1 RES1   0.0000
    17 N17     21.4288  35.7946  -4.0074   N.2       1 RES1   0.0000
    18 C18     22.5228  35.3576  -3.3148   C.2       1 RES1   0.0000
    19 C19     22.3106  34.0702  -2.5134   C.3       1 RES1   0.0000
    20 F20     21.0110  33.8506  -2.4231   F         1 RES1   0.0000
    21 F21     22.8403  33.0238  -3.1543   F         1 RES1   0.0000
    22 F22     22.7851  34.1233  -1.2550   F         1 RES1   0.0000
    23 C23     26.6532  36.8026  -0.4007   C.2       1 RES1   0.0000
    24 O24     27.3729  35.6738  -0.3376   O.2       1 RES1   0.0000
    25 N25     26.9607  37.7809   0.4537   N.am      1 RES1   0.0000
    26 C26     25.8386  40.3111   2.3960   C.3       1 RES1   0.0000
    27 C27     26.7188  41.1168   3.3489   C.3       1 RES1   0.0000
@<TRIPOS>BOND
     1     1     2    1
     2     2     3    1
     3     3     4    1
     4     2     5    1
     5     5     6    1
     6     6     7    1
     7     7     8    1
     8     8     9    2
     9     9    10    1
    10    10    11    2
    11    11    12    1
    12    12    13    1
    13    13    14    2
    14    14    15    1
    15    15    16    2
    16    16    17    1
    17    17    18    2
    18    18    19    1
    19    19    20    1
    20    19    21    1
    21    19    22    1
    22    11    23    1
    23    23    24    2
    24    23    25   am
    25     7    26    1
    26    26    27    1
    27    27     2    1
    28    25     8    1
    29    18    13    1
@<TRIPOS>SUBSTRUCTURE
     1 RES1        1 GROUP             0 ****  ****    0  
@<TRIPOS>MOLECULE
ligand_76
    27    29     1     0     0
SMALL
USER_CHARGES
****
Generated from the CSD

@<TRIPOS>ATOM
     1 C1      26.2108  43.4049   2.3833   C.3       1 RES1   0.0000
     2 C2      27.3070  42.3390   2.6920   C.3       1 RES1   0.0000
     3 C3      28.3100  43.0110   3.6710   C.3       1 RES1   0.0000
     4 N4      27.7286  43.4502   4.9303   N.3       1 RES1   1.0000
     5 C5      27.9864  41.9652   1.3882   C.3       1 RES1   0.0000
     6 C6      27.0776  41.1615   0.4893   C.3       1 RES1   0.0000
     7 N7      26.5816  39.9712   1.1796   N.pl3     1 RES1   0.0000
     8 C8      26.1875  38.8643   0.4249   C.2       1 RES1   0.0000
     9 N9      25.1401  39.0368  -0.3861   N.2       1 RES1   0.0000
    10 C10     24.7847  38.0363  -1.2122   C.2       1 RES1   0.0000
    11 C11     25.5382  36.8589  -1.2787   C.2       1 RES1   0.0000
    12 S12     25.2107  35.5717  -2.4483   S.3       1 RES1   0.0000
    13 C13     23.7658  36.0455  -3.3729   C.2       1 RES1   0.0000
    14 C14     22.5115  36.1192  -2.7129   C.2       1 RES1   0.0000
    15 C15     21.3389  36.4232  -3.4331   C.2       1 RES1   0.0000
    16 C16     21.4559  36.6981  -4.7980   C.2       1 RES1   0.0000
    17 N17     22.6400  36.6550  -5.4485   N.2       1 RES1   0.0000
    18 C18     23.7854  36.3482  -4.7693   C.2       1 RES1   0.0000
    19 C19     25.0670  36.3940  -5.6062   C.3       1 RES1   0.0000
    20 F20     24.7253  36.4116  -6.8822   F         1 RES1   0.0000
    21 F21     25.7452  37.5206  -5.3676   F         1 RES1   0.0000
    22 F22     25.8729  35.3300  -5.4332   F         1 RES1   0.0000
    23 C23     26.6532  36.8026  -0.4007   C.2       1 RES1   0.0000
    24 O24     27.3729  35.6738  -0.3376   O.2       1 RES1   0.0000
    25 N25     26.9607  37.7809   0.4537   N.am      1 RES1   0.0000
    26 C26     25.8386  40.3111   2.3960   C.3       1 RES1   0.0000
    27 C27     26.7188  41.1168   3.3489   C.3       1 RES1   0.0000
@<TRIPOS>BOND
     1     1     2    1
     2     2     3    1
     3     3     4    1
     4     2     5    1
     5     5     6    1
     6     6     7    1
     7     7     8    1
     8     8     9    2
     9     9    10    1
    10    10    11    2
    11    11    12    1
    12    12    13    1
    13    13    14    2
    14    14    15    1
    15    15    16    2
    16    16    17    1
    17    17    18    2
    18    18    19    1
    19    19    20    1
    20    19    21    1
    21    19    22    1
    22    11    23    1
    23    23    24    2
    24    23    25   am
    25     7    26    1
    26    26    27    1
    27    27     2    1
    28    25     8    1
    29    18    13    1
@<TRIPOS>SUBSTRUCTURE
     1 RES1        1 GROUP             0 ****  ****    0  
@<TRIPOS>MOLECULE
ligand_77
    27    29     1     0     0
SMALL
USER_CHARGES
****
Generated from the CSD

@<TRIPOS>ATOM
     1 C1      26.1918  43.3931   2.4104   C.3       1 RES1   0.0000
     2 C2      27.3053  42.3382   2.6940   C.3       1 RES1   0.0000
     3 C3      28.3170  43.0160   3.6600   C.3       1 RES1   0.0000
     4 N4      27.7517  43.4423   4.9310   N.3       1 RES1   1.0000
     5 C5      27.9667  41.9801   1.3767   C.3       1 RES1   0.0000
     6 C6      27.0521  41.1712   0.4884   C.3       1 RES1   0.0000
     7 N7      26.5816  39.9712   1.1796   N.pl3     1 RES1   0.0000
     8 C8      26.1875  38.8643   0.4249   C.2       1 RES1   0.0000
     9 N9      27.1401  38.2591  -0.2898   N.2       1 RES1   0.0000
    10 C10     26.8379  37.1270  -0.9506   C.2       1 RES1   0.0000
    11 C11     25.5692  36.5472  -0.8378   C.2       1 RES1   0.0000
    12 S12     25.1576  34.9846  -1.5597   S.3       1 RES1   0.0000
    13 C13     26.5870  34.4173  -2.4553   C.2       1 RES1   0.0000
    14 C14     27.7700  34.0916  -1.7421   C.2       1 RES1   0.0000
    15 C15     28.9388  33.7070  -2.4292   C.2       1 RES1   0.0000
    16 C16     28.8825  33.6075  -3.8218   C.2       1 RES1   0.0000
    17 N17     27.7640  33.8919  -4.5254   N.2       1 RES1   0.0000
    18 C18     26.6254  34.2800  -3.8772   C.2       1 RES1   0.0000
    19 C19     25.4118  34.5120  -4.7816   C.3       1 RES1   0.0000
    20 F20     25.8373  34.5904  -6.0299   F         1 RES1   0.0000
    21 F21     24.5725  33.4737  -4.7192   F         1 RES1   0.0000
    22 F22     24.7465  35.6534  -4.5244   F         1 RES1   0.0000
    23 C23     24.6498  37.2558  -0.0193   C.2       1 RES1   0.0000
    24 O24     23.3868  36.8163   0.0683   O.2       1 RES1   0.0000
    25 N25     24.9471  38.4081   0.5853   N.am      1 RES1   0.0000
    26 C26     25.8554  40.2952   2.4104   C.3       1 RES1   0.0000
    27 C27     26.7424  41.1055   3.3532   C.3       1 RES1   0.0000
@<TRIPOS>BOND
     1     1     2    1
     2     2     3    1
     3     3     4    1
     4     2     5    1
     5     5     6    1
     6     6     7    1
     7     7     8    1
     8     8     9    2
     9     9    10    1
    10    10    11    2
    11    11    12    1
    12    12    13    1
    13    13    14    2
    14    14    15    1
    15    15    16    2
    16    16    17    1
    17    17    18    2
    18    18    19    1
    19    19    20    1
    20    19    21    1
    21    19    22    1
    22    11    23    1
    23    23    24    2
    24    23    25   am
    25     7    26    1
    26    26    27    1
    27    27     2    1
    28    25     8    1
    29    18    13    1
@<TRIPOS>SUBSTRUCTURE
     1 RES1        1 GROUP             0 ****  ****    0  
@<TRIPOS>MOLECULE
ligand_78
    27    29     1     0     0
SMALL
USER_CHARGES
****
Generated from the CSD

@<TRIPOS>ATOM
     1 C1      26.1940  43.3945   2.4072   C.3       1 RES1   0.0000
     2 C2      27.3055  42.3383   2.6938   C.3       1 RES1   0.0000
     3 C3      28.3162  43.0154   3.6613   C.3       1 RES1   0.0000
     4 N4      27.7492  43.4427   4.9312   N.3       1 RES1   1.0000
     5 C5      27.9690  41.9784   1.3780   C.3       1 RES1   0.0000
     6 C6      27.0551  41.1701   0.4884   C.3       1 RES1   0.0000
     7 N7      26.5816  39.9712   1.1796   N.pl3     1 RES1   0.0000
     8 C8      26.1875  38.8643   0.4249   C.2       1 RES1   0.0000
     9 N9      27.1401  38.2591  -0.2898   N.2       1 RES1   0.0000
    10 C10     26.8379  37.1270  -0.9506   C.2       1 RES1   0.0000
    11 C11     25.5692  36.5472  -0.8378   C.2       1 RES1   0.0000
    12 S12     25.1576  34.9846  -1.5597   S.3       1 RES1   0.0000
    13 C13     26.5840  34.4215  -2.4627   C.2       1 RES1   0.0000
    14 C14     27.0033  35.1354  -3.6154   C.2       1 RES1   0.0000
    15 C15     28.0860  34.6739  -4.3905   C.2       1 RES1   0.0000
    16 C16     28.7616  33.5279  -3.9633   C.2       1 RES1   0.0000
    17 N17     28.3971  32.8395  -2.8587   N.2       1 RES1   0.0000
    18 C18     27.3409  33.2642  -2.1027   C.2       1 RES1   0.0000
    19 C19     27.0693  32.4345  -0.8446   C.3       1 RES1   0.0000
    20 F20     27.7319  31.2965  -0.9507   F         1 RES1   0.0000
    21 F21     27.5360  33.0588   0.2411   F         1 RES1   0.0000
    22 F22     25.7737  32.1159  -0.6671   F         1 RES1   0.0000
    23 C23     24.6498  37.2558  -0.0193   C.2       1 RES1   0.0000
    24 O24     23.3868  36.8163   0.0683   O.2       1 RES1   0.0000
    25 N25     24.9471  38.4081   0.5853   N.am      1 RES1   0.0000
    26 C26     25.8535  40.2970   2.4088   C.3       1 RES1   0.0000
    27 C27     26.7397  41.1068   3.3527   C.3       1 RES1   0.0000
@<TRIPOS>BOND
     1     1     2    1
     2     2     3    1
     3     3     4    1
     4     2     5    1
     5     5     6    1
     6     6     7    1
     7     7     8    1
     8     8     9    2
     9     9    10    1
    10    10    11    2
    11    11    12    1
    12    12    13    1
    13    13    14    2
    14    14    15    1
    15    15    16    2
    16    16    17    1
    17    17    18    2
    18    18    19    1
    19    19    20    1
    20    19    21    1
    21    19    22    1
    22    11    23    1
    23    23    24    2
    24    23    25   am
    25     7    26    1
    26    26    27    1
    27    27     2    1
    28    25     8    1
    29    18    13    1
@<TRIPOS>SUBSTRUCTURE
     1 RES1        1 GROUP             0 ****  ****    0  
@<TRIPOS>MOLECULE
ligand_79
    27    29     1     0     0
SMALL
USER_CHARGES
****
Generated from the CSD

@<TRIPOS>ATOM
     1 C1      26.2108  43.4049   2.3833   C.3       1 RES1   0.0000
     2 C2      27.3070  42.3390   2.6920   C.3       1 RES1   0.0000
     3 C3      28.3100  43.0110   3.6710   C.3       1 RES1   0.0000
     4 N4      27.7283  43.4515   4.9297   N.3       1 RES1   1.0000
     5 C5      27.9864  41.9652   1.3882   C.3       1 RES1   0.0000
     6 C6      27.0776  41.1615   0.4893   C.3       1 RES1   0.0000
     7 N7      26.5816  39.9712   1.1796   N.pl3     1 RES1   0.0000
     8 C8      26.1875  38.8643   0.4249   C.2       1 RES1   0.0000
     9 N9      26.8979  37.7452   0.5904   N.2       1 RES1   0.0000
    10 C10     26.4971  36.6218  -0.0317   C.2       1 RES1   0.0000
    11 C11     25.3166  36.5997  -0.7829   C.2       1 RES1   0.0000
    12 S12     24.6593  35.1209  -1.4994   S.3       1 RES1   0.0000
    13 C13     25.7995  33.8021  -1.1417   C.2       1 RES1   0.0000
    14 C14     25.9932  33.3967   0.2045   C.2       1 RES1   0.0000
    15 C15     26.9404  32.4038   0.5253   C.2       1 RES1   0.0000
    16 C16     27.6416  31.7987  -0.5209   C.2       1 RES1   0.0000
    17 N17     27.4630  32.1505  -1.8137   N.2       1 RES1   0.0000
    18 C18     26.5591  33.1212  -2.1424   C.2       1 RES1   0.0000
    19 C19     26.4059  33.3826  -3.6433   C.3       1 RES1   0.0000
    20 F20     27.4278  32.8222  -4.2655   F         1 RES1   0.0000
    21 F21     25.2970  32.8020  -4.1118   F         1 RES1   0.0000
    22 F22     26.4146  34.6867  -3.9764   F         1 RES1   0.0000
    23 C23     24.6218  37.8364  -0.8561   C.2       1 RES1   0.0000
    24 O24     23.5310  37.9229  -1.6300   O.2       1 RES1   0.0000
    25 N25     25.0616  38.9570  -0.2795   N.am      1 RES1   0.0000
    26 C26     25.8386  40.3111   2.3960   C.3       1 RES1   0.0000
    27 C27     26.7188  41.1168   3.3489   C.3       1 RES1   0.0000
@<TRIPOS>BOND
     1     1     2    1
     2     2     3    1
     3     3     4    1
     4     2     5    1
     5     5     6    1
     6     6     7    1
     7     7     8    1
     8     8     9    2
     9     9    10    1
    10    10    11    2
    11    11    12    1
    12    12    13    1
    13    13    14    2
    14    14    15    1
    15    15    16    2
    16    16    17    1
    17    17    18    2
    18    18    19    1
    19    19    20    1
    20    19    21    1
    21    19    22    1
    22    11    23    1
    23    23    24    2
    24    23    25   am
    25     7    26    1
    26    26    27    1
    27    27     2    1
    28    25     8    1
    29    18    13    1
@<TRIPOS>SUBSTRUCTURE
     1 RES1        1 GROUP             0 ****  ****    0  
@<TRIPOS>MOLECULE
ligand_80
    27    29     1     0     0
SMALL
USER_CHARGES
****
Generated from the CSD

@<TRIPOS>ATOM
     1 C1      26.2108  43.4049   2.3833   C.3       1 RES1   0.0000
     2 C2      27.3070  42.3390   2.6920   C.3       1 RES1   0.0000
     3 C3      28.3100  43.0110   3.6710   C.3       1 RES1   0.0000
     4 N4      27.7286  43.4502   4.9303   N.3       1 RES1   1.0000
     5 C5      27.9864  41.9652   1.3882   C.3       1 RES1   0.0000
     6 C6      27.0776  41.1615   0.4893   C.3       1 RES1   0.0000
     7 N7      26.5816  39.9712   1.1796   N.pl3     1 RES1   0.0000
     8 C8      26.1875  38.8643   0.4249   C.2       1 RES1   0.0000
     9 N9      26.8979  37.7452   0.5904   N.2       1 RES1   0.0000
    10 C10     26.4971  36.6218  -0.0317   C.2       1 RES1   0.0000
    11 C11     25.3166  36.5997  -0.7829   C.2       1 RES1   0.0000
    12 S12     24.6593  35.1209  -1.4994   S.3       1 RES1   0.0000
    13 C13     25.8041  33.8039  -1.1497   C.2       1 RES1   0.0000
    14 C14     27.0928  33.8272  -1.7435   C.2       1 RES1   0.0000
    15 C15     27.9951  32.7636  -1.5413   C.2       1 RES1   0.0000
    16 C16     27.6033  31.7170  -0.7026   C.2       1 RES1   0.0000
    17 N17     26.3901  31.6784  -0.1078   N.2       1 RES1   0.0000
    18 C18     25.4970  32.6940  -0.3037   C.2       1 RES1   0.0000
    19 C19     24.1848  32.5621   0.4744   C.3       1 RES1   0.0000
    20 F20     24.0907  31.3204   0.9159   F         1 RES1   0.0000
    21 F21     24.1913  33.3589   1.5474   F         1 RES1   0.0000
    22 F22     23.0840  32.7978  -0.2632   F         1 RES1   0.0000
    23 C23     24.6218  37.8364  -0.8561   C.2       1 RES1   0.0000
    24 O24     23.5310  37.9229  -1.6300   O.2       1 RES1   0.0000
    25 N25     25.0616  38.9570  -0.2795   N.am      1 RES1   0.0000
    26 C26     25.8386  40.3111   2.3960   C.3       1 RES1   0.0000
    27 C27     26.7188  41.1168   3.3489   C.3       1 RES1   0.0000
@<TRIPOS>BOND
     1     1     2    1
     2     2     3    1
     3     3     4    1
     4     2     5    1
     5     5     6    1
     6     6     7    1
     7     7     8    1
     8     8     9    2
     9     9    10    1
    10    10    11    2
    11    11    12    1
    12    12    13    1
    13    13    14    2
    14    14    15    1
    15    15    16    2
    16    16    17    1
    17    17    18    2
    18    18    19    1
    19    19    20    1
    20    19    21    1
    21    19    22    1
    22    11    23    1
    23    23    24    2
    24    23    25   am
    25     7    26    1
    26    26    27    1
    27    27     2    1
    28    25     8    1
    29    18    13    1
@<TRIPOS>SUBSTRUCTURE
     1 RES1        1 GROUP             0 ****  ****    0  
@<TRIPOS>MOLECULE
ligand_81
    27    29     1     0     0
SMALL
USER_CHARGES
****
Generated from the CSD

@<TRIPOS>ATOM
     1 C1      28.0978  41.7264   1.4875   C.3       1 RES1   0.0000
     2 C2      27.3418  42.0362   2.8163   C.3       1 RES1   0.0000
     3 C3      28.3701  42.5102   3.8811   C.3       1 RES1   0.0000
     4 N4      27.7963  42.8352   5.1779   N.3       1 RES1   1.0000
     5 C5      26.5657  40.8006   3.2537   C.3       1 RES1   0.0000
     6 C6      25.5073  40.4005   2.2352   C.3       1 RES1   0.0000
     7 N7      24.6083  41.5069   1.8561   N.pl3     1 RES1   0.0000
     8 C8      23.4025  41.6514   2.5456   C.2       1 RES1   0.0000
     9 N9      22.5442  42.5549   2.0646   N.2       1 RES1   0.0000
    10 C10     21.3265  42.6598   2.6267   C.2       1 RES1   0.0000
    11 C11     20.9318  41.7916   3.6508   C.2       1 RES1   0.0000
    12 S12     19.2961  41.7810   4.3264   S.3       1 RES1   0.0000
    13 C13     18.3792  43.0788   3.5251   C.2       1 RES1   0.0000
    14 C14     18.1071  42.9818   2.1356   C.2       1 RES1   0.0000
    15 C15     17.4447  44.0262   1.4599   C.2       1 RES1   0.0000
    16 C16     17.0216  45.1298   2.2051   C.2       1 RES1   0.0000
    17 N17     17.2491  45.2398   3.5329   N.2       1 RES1   0.0000
    18 C18     17.9024  44.2434   4.2022   C.2       1 RES1   0.0000
    19 C19     18.0416  44.4598   5.7116   C.3       1 RES1   0.0000
    20 F20     17.7725  45.7267   5.9727   F         1 RES1   0.0000
    21 F21     17.1458  43.7247   6.3774   F         1 RES1   0.0000
    22 F22     19.2767  44.2176   6.1886   F         1 RES1   0.0000
    23 C23     21.9112  40.8451   4.0538   C.2       1 RES1   0.0000
    24 O24     21.6451  40.0372   5.0895   O.2       1 RES1   0.0000
    25 N25     23.1354  40.7898   3.5247   N.am      1 RES1   0.0000
    26 C26     25.3424  42.6888   1.3993   C.3       1 RES1   0.0000
    27 C27     26.3585  43.1419   2.4404   C.3       1 RES1   0.0000
@<TRIPOS>BOND
     1     1     2    1
     2     2     3    1
     3     3     4    1
     4     2     5    1
     5     5     6    1
     6     6     7    1
     7     7     8    1
     8     8     9    2
     9     9    10    1
    10    10    11    2
    11    11    12    1
    12    12    13    1
    13    13    14    2
    14    14    15    1
    15    15    16    2
    16    16    17    1
    17    17    18    2
    18    18    19    1
    19    19    20    1
    20    19    21    1
    21    19    22    1
    22    11    23    1
    23    23    24    2
    24    23    25   am
    25     7    26    1
    26    26    27    1
    27    27     2    1
    28    25     8    1
    29    18    13    1
@<TRIPOS>SUBSTRUCTURE
     1 RES1        1 GROUP             0 ****  ****    0  
@<TRIPOS>MOLECULE
ligand_82
    27    29     1     0     0
SMALL
USER_CHARGES
****
Generated from the CSD

@<TRIPOS>ATOM
     1 C1      26.5324  41.2076   3.4476   C.3       1 RES1   0.0000
     2 C2      27.0498  42.5206   2.7833   C.3       1 RES1   0.0000
     3 C3      27.8860  43.3155   3.8249   C.3       1 RES1   0.0000
     4 N4      27.1568  43.7007   5.0235   N.3       1 RES1   1.0000
     5 C5      25.8652  43.3142   2.2474   C.3       1 RES1   0.0000
     6 C6      25.1074  42.5517   1.1694   C.3       1 RES1   0.0000
     7 N7      25.9721  42.0559   0.0821   N.pl3     1 RES1   0.0000
     8 C8      26.1233  42.8442  -1.0607   C.2       1 RES1   0.0000
     9 N9      26.7742  42.2895  -2.0870   N.2       1 RES1   0.0000
    10 C10     26.8558  42.9649  -3.2476   C.2       1 RES1   0.0000
    11 C11     26.2106  44.1963  -3.4080   C.2       1 RES1   0.0000
    12 S12     26.1555  45.0598  -4.9519   S.3       1 RES1   0.0000
    13 C13     27.1038  44.1161  -6.1255   C.2       1 RES1   0.0000
    14 C14     26.6494  42.8280  -6.5107   C.2       1 RES1   0.0000
    15 C15     27.4146  42.0291  -7.3839   C.2       1 RES1   0.0000
    16 C16     28.6010  42.5611  -7.8953   C.2       1 RES1   0.0000
    17 N17     29.0478  43.7924  -7.5617   N.2       1 RES1   0.0000
    18 C18     28.3263  44.5757  -6.7054   C.2       1 RES1   0.0000
    19 C19     28.9074  45.9705  -6.4574   C.3       1 RES1   0.0000
    20 F20     30.1564  45.9789  -6.8879   F         1 RES1   0.0000
    21 F21     28.2439  46.8898  -7.1651   F         1 RES1   0.0000
    22 F22     28.9400  46.3281  -5.1603   F         1 RES1   0.0000
    23 C23     25.5151  44.6696  -2.2637   C.2       1 RES1   0.0000
    24 O24     24.9469  45.8827  -2.3055   O.2       1 RES1   0.0000
    25 N25     25.4899  44.0145  -1.1010   N.am      1 RES1   0.0000
    26 C26     27.0952  41.2607   0.5828   C.3       1 RES1   0.0000
    27 C27     27.9040  42.0387   1.6134   C.3       1 RES1   0.0000
@<TRIPOS>BOND
     1     1     2    1
     2     2     3    1
     3     3     4    1
     4     2     5    1
     5     5     6    1
     6     6     7    1
     7     7     8    1
     8     8     9    2
     9     9    10    1
    10    10    11    2
    11    11    12    1
    12    12    13    1
    13    13    14    2
    14    14    15    1
    15    15    16    2
    16    16    17    1
    17    17    18    2
    18    18    19    1
    19    19    20    1
    20    19    21    1
    21    19    22    1
    22    11    23    1
    23    23    24    2
    24    23    25   am
    25     7    26    1
    26    26    27    1
    27    27     2    1
    28    25     8    1
    29    18    13    1
@<TRIPOS>SUBSTRUCTURE
     1 RES1        1 GROUP             0 ****  ****    0  
@<TRIPOS>MOLECULE
ligand_83
    27    29     1     0     0
SMALL
USER_CHARGES
****
Generated from the CSD

@<TRIPOS>ATOM
     1 C1      26.2981  43.4169   2.1710   C.3       1 RES1   0.0000
     2 C2      27.4721  42.4204   2.4191   C.3       1 RES1   0.0000
     3 C3      28.5878  43.1474   3.2207   C.3       1 RES1   0.0000
     4 N4      28.1721  43.6522   4.5203   N.3       1 RES1   1.0000
     5 C5      27.9627  41.8779   1.0830   C.3       1 RES1   0.0000
     6 C6      26.8794  41.0987   0.3502   C.3       1 RES1   0.0000
     7 N7      26.2539  40.0461   1.1729   N.pl3     1 RES1   0.0000
     8 C8      26.7638  38.7484   1.0945   C.2       1 RES1   0.0000
     9 N9      26.0688  37.7949   1.7209   N.2       1 RES1   0.0000
    10 C10     26.4570  36.5136   1.5893   C.2       1 RES1   0.0000
    11 C11     27.5258  36.1699   0.7540   C.2       1 RES1   0.0000
    12 S12     27.9882  34.4939   0.4232   S.3       1 RES1   0.0000
    13 C13     26.9206  33.4455   1.3867   C.2       1 RES1   0.0000
    14 C14     25.5317  33.4135   1.0969   C.2       1 RES1   0.0000
    15 C15     24.6516  32.6472   1.8870   C.2       1 RES1   0.0000
    16 C16     25.1920  31.8850   2.9258   C.2       1 RES1   0.0000
    17 N17     26.5130  31.8805   3.2119   N.2       1 RES1   0.0000
    18 C18     27.3796  32.6283   2.4654   C.2       1 RES1   0.0000
    19 C19     28.8548  32.4880   2.8510   C.3       1 RES1   0.0000
    20 F20     28.9173  31.9111   4.0379   F         1 RES1   0.0000
    21 F21     29.4917  31.6859   1.9924   F         1 RES1   0.0000
    22 F22     29.5088  33.6600   2.9526   F         1 RES1   0.0000
    23 C23     28.1646  37.2612   0.1071   C.2       1 RES1   0.0000
    24 O24     29.2532  37.0264  -0.6384   O.2       1 RES1   0.0000
    25 N25     27.8034  38.5329   0.2914   N.am      1 RES1   0.0000
    26 C26     25.7457  40.5628   2.4454   C.3       1 RES1   0.0000
    27 C27     26.8393  41.2863   3.2216   C.3       1 RES1   0.0000
@<TRIPOS>BOND
     1     1     2    1
     2     2     3    1
     3     3     4    1
     4     2     5    1
     5     5     6    1
     6     6     7    1
     7     7     8    1
     8     8     9    2
     9     9    10    1
    10    10    11    2
    11    11    12    1
    12    12    13    1
    13    13    14    2
    14    14    15    1
    15    15    16    2
    16    16    17    1
    17    17    18    2
    18    18    19    1
    19    19    20    1
    20    19    21    1
    21    19    22    1
    22    11    23    1
    23    23    24    2
    24    23    25   am
    25     7    26    1
    26    26    27    1
    27    27     2    1
    28    25     8    1
    29    18    13    1
@<TRIPOS>SUBSTRUCTURE
     1 RES1        1 GROUP             0 ****  ****    0  
@<TRIPOS>MOLECULE
ligand_84
    27    29     1     0     0
SMALL
USER_CHARGES
****
Generated from the CSD

@<TRIPOS>ATOM
     1 C1      28.0908  41.7861   1.4628   C.3       1 RES1   0.0000
     2 C2      27.3338  42.1289   2.7829   C.3       1 RES1   0.0000
     3 C3      28.3561  42.6636   3.8245   C.3       1 RES1   0.0000
     4 N4      27.7808  43.0243   5.1111   N.3       1 RES1   1.0000
     5 C5      26.5859  40.8943   3.2694   C.3       1 RES1   0.0000
     6 C6      25.5322  40.4345   2.2715   C.3       1 RES1   0.0000
     7 N7      24.6083  41.5069   1.8561   N.pl3     1 RES1   0.0000
     8 C8      23.4025  41.6514   2.5456   C.2       1 RES1   0.0000
     9 N9      23.2296  40.8713   3.6161   N.2       1 RES1   0.0000
    10 C10     22.1335  41.0436   4.3769   C.2       1 RES1   0.0000
    11 C11     21.2217  42.0682   4.0998   C.2       1 RES1   0.0000
    12 S12     19.8441  42.4398   5.1470   S.3       1 RES1   0.0000
    13 C13     19.8442  41.2507   6.4710   C.2       1 RES1   0.0000
    14 C14     20.9131  41.2501   7.4047   C.2       1 RES1   0.0000
    15 C15     20.9765  40.2766   8.4217   C.2       1 RES1   0.0000
    16 C16     19.9351  39.3496   8.5131   C.2       1 RES1   0.0000
    17 N17     18.8946  39.3390   7.6503   N.2       1 RES1   0.0000
    18 C18     18.8235  40.2665   6.6493   C.2       1 RES1   0.0000
    19 C19     17.5657  40.1864   5.7797   C.3       1 RES1   0.0000
    20 F20     16.9832  39.0221   6.0042   F         1 RES1   0.0000
    21 F21     16.6910  41.1349   6.1283   F         1 RES1   0.0000
    22 F22     17.8083  40.2522   4.4574   F         1 RES1   0.0000
    23 C23     21.5282  42.8608   2.9616   C.2       1 RES1   0.0000
    24 O24     20.6587  43.8046   2.5751   O.2       1 RES1   0.0000
    25 N25     22.5904  42.6422   2.1835   N.am      1 RES1   0.0000
    26 C26     25.3153  42.6863   1.3524   C.3       1 RES1   0.0000
    27 C27     26.3257  43.1989   2.3711   C.3       1 RES1   0.0000
@<TRIPOS>BOND
     1     1     2    1
     2     2     3    1
     3     3     4    1
     4     2     5    1
     5     5     6    1
     6     6     7    1
     7     7     8    1
     8     8     9    2
     9     9    10    1
    10    10    11    2
    11    11    12    1
    12    12    13    1
    13    13    14    2
    14    14    15    1
    15    15    16    2
    16    16    17    1
    17    17    18    2
    18    18    19    1
    19    19    20    1
    20    19    21    1
    21    19    22    1
    22    11    23    1
    23    23    24    2
    24    23    25   am
    25     7    26    1
    26    26    27    1
    27    27     2    1
    28    25     8    1
    29    18    13    1
@<TRIPOS>SUBSTRUCTURE
     1 RES1        1 GROUP             0 ****  ****    0  
@<TRIPOS>MOLECULE
ligand_85
    27    29     1     0     0
SMALL
USER_CHARGES
****
Generated from the CSD

@<TRIPOS>ATOM
     1 C1      26.5825  41.1720   3.4296   C.3       1 RES1   0.0000
     2 C2      27.1291  42.4697   2.7586   C.3       1 RES1   0.0000
     3 C3      28.0168  43.2300   3.7833   C.3       1 RES1   0.0000
     4 N4      27.3300  43.6344   5.0004   N.3       1 RES1   1.0000
     5 C5      25.9603  43.3064   2.2545   C.3       1 RES1   0.0000
     6 C6      25.1511  42.5759   1.1918   C.3       1 RES1   0.0000
     7 N7      25.9721  42.0559   0.0821   N.pl3     1 RES1   0.0000
     8 C8      26.1233  42.8442  -1.0607   C.2       1 RES1   0.0000
     9 N9      25.6017  44.0731  -1.0118   N.2       1 RES1   0.0000
    10 C10     25.8101  44.9103  -2.0440   C.2       1 RES1   0.0000
    11 C11     26.6190  44.5330  -3.1218   C.2       1 RES1   0.0000
    12 S12     27.0519  45.6393  -4.4336   S.3       1 RES1   0.0000
    13 C13     26.2173  47.1812  -4.1288   C.2       1 RES1   0.0000
    14 C14     26.5698  47.9487  -2.9882   C.2       1 RES1   0.0000
    15 C15     25.8787  49.1383  -2.6826   C.2       1 RES1   0.0000
    16 C16     24.8768  49.5626  -3.5592   C.2       1 RES1   0.0000
    17 N17     24.5337  48.8625  -4.6633   N.2       1 RES1   0.0000
    18 C18     25.1833  47.6995  -4.9680   C.2       1 RES1   0.0000
    19 C19     24.7445  47.0356  -6.2762   C.3       1 RES1   0.0000
    20 F20     23.6024  47.5825  -6.6528   F         1 RES1   0.0000
    21 F21     25.6315  47.2755  -7.2467   F         1 RES1   0.0000
    22 F22     24.5270  45.7114  -6.1730   F         1 RES1   0.0000
    23 C23     27.1534  43.2191  -3.0475   C.2       1 RES1   0.0000
    24 O24     27.8640  42.7483  -4.0817   O.2       1 RES1   0.0000
    25 N25     26.8920  42.3795  -2.0433   N.am      1 RES1   0.0000
    26 C26     27.0786  41.2200   0.5525   C.3       1 RES1   0.0000
    27 C27     27.9381  41.9644   1.5667   C.3       1 RES1   0.0000
@<TRIPOS>BOND
     1     1     2    1
     2     2     3    1
     3     3     4    1
     4     2     5    1
     5     5     6    1
     6     6     7    1
     7     7     8    1
     8     8     9    2
     9     9    10    1
    10    10    11    2
    11    11    12    1
    12    12    13    1
    13    13    14    2
    14    14    15    1
    15    15    16    2
    16    16    17    1
    17    17    18    2
    18    18    19    1
    19    19    20    1
    20    19    21    1
    21    19    22    1
    22    11    23    1
    23    23    24    2
    24    23    25   am
    25     7    26    1
    26    26    27    1
    27    27     2    1
    28    25     8    1
    29    18    13    1
@<TRIPOS>SUBSTRUCTURE
     1 RES1        1 GROUP             0 ****  ****    0  
@<TRIPOS>MOLECULE
ligand_86
    27    29     1     0     0
SMALL
USER_CHARGES
****
Generated from the CSD

@<TRIPOS>ATOM
     1 C1      26.2653  43.4008   2.2247   C.3       1 RES1   0.0000
     2 C2      27.4264  42.3973   2.5037   C.3       1 RES1   0.0000
     3 C3      28.5109  43.1087   3.3604   C.3       1 RES1   0.0000
     4 N4      28.0447  43.5943   4.6502   N.3       1 RES1   1.0000
     5 C5      27.9688  41.8744   1.1799   C.3       1 RES1   0.0000
     6 C6      26.9139  41.1097   0.3924   C.3       1 RES1   0.0000
     7 N7      26.2539  40.0461   1.1729   N.pl3     1 RES1   0.0000
     8 C8      26.7638  38.7484   1.0945   C.2       1 RES1   0.0000
     9 N9      27.8948  38.5921   0.4011   N.2       1 RES1   0.0000
    10 C10     28.4850  37.3833   0.3822   C.2       1 RES1   0.0000
    11 C11     27.9686  36.3210   1.1325   C.2       1 RES1   0.0000
    12 S12     28.7803  34.7541   1.2673   S.3       1 RES1   0.0000
    13 C13     30.2342  34.8162   0.2430   C.2       1 RES1   0.0000
    14 C14     31.2862  35.7062   0.5826   C.2       1 RES1   0.0000
    15 C15     32.4186  35.8283  -0.2474   C.2       1 RES1   0.0000
    16 C16     32.4964  35.0142  -1.3804   C.2       1 RES1   0.0000
    17 N17     31.5192  34.1434  -1.7174   N.2       1 RES1   0.0000
    18 C18     30.4075  34.0217  -0.9320   C.2       1 RES1   0.0000
    19 C19     29.4052  32.9576  -1.3881   C.3       1 RES1   0.0000
    20 F20     29.7014  32.6181  -2.6300   F         1 RES1   0.0000
    21 F21     29.5188  31.8537  -0.6433   F         1 RES1   0.0000
    22 F22     28.1259  33.3758  -1.3931   F         1 RES1   0.0000
    23 C23     26.7861  36.6135   1.8630   C.2       1 RES1   0.0000
    24 O24     26.1775  35.6263   2.5347   O.2       1 RES1   0.0000
    25 N25     26.1805  37.8024   1.8274   N.am      1 RES1   0.0000
    26 C26     25.6965  40.5443   2.4321   C.3       1 RES1   0.0000
    27 C27     26.7598  41.2525   3.2625   C.3       1 RES1   0.0000
@<TRIPOS>BOND
     1     1     2    1
     2     2     3    1
     3     3     4    1
     4     2     5    1
     5     5     6    1
     6     6     7    1
     7     7     8    1
     8     8     9    2
     9     9    10    1
    10    10    11    2
    11    11    12    1
    12    12    13    1
    13    13    14    2
    14    14    15    1
    15    15    16    2
    16    16    17    1
    17    17    18    2
    18    18    19    1
    19    19    20    1
    20    19    21    1
    21    19    22    1
    22    11    23    1
    23    23    24    2
    24    23    25   am
    25     7    26    1
    26    26    27    1
    27    27     2    1
    28    25     8    1
    29    18    13    1
@<TRIPOS>SUBSTRUCTURE
     1 RES1        1 GROUP             0 ****  ****    0  
@<TRIPOS>MOLECULE
ligand_87
    27    29     1     0     0
SMALL
USER_CHARGES
****
Generated from the CSD

@<TRIPOS>ATOM
     1 C1      28.1493  41.8362   1.4802   C.3       1 RES1   0.0000
     2 C2      27.3085  42.3309   2.6973   C.3       1 RES1   0.0000
     3 C3      28.2996  43.0553   3.6507   C.3       1 RES1   0.0000
     4 N4      27.6958  43.5951   4.8593   N.3       1 RES1   1.0000
     5 C5      26.6911  41.1203   3.3714   C.3       1 RES1   0.0000
     6 C6      25.6024  40.5001   2.5288   C.3       1 RES1   0.0000
     7 N7      24.5785  41.4883   2.1905   N.pl3     1 RES1   0.0000
     8 C8      23.2849  41.0514   1.8974   C.2       1 RES1   0.0000
     9 N9      22.3684  41.9996   1.6838   N.2       1 RES1   0.0000
    10 C10     21.1333  41.6351   1.2946   C.2       1 RES1   0.0000
    11 C11     20.8264  40.2928   1.0455   C.2       1 RES1   0.0000
    12 S12     19.2687  39.7674   0.3898   S.3       1 RES1   0.0000
    13 C13     18.2873  39.1785   1.7525   C.2       1 RES1   0.0000
    14 C14     18.7316  39.4100   3.0803   C.2       1 RES1   0.0000
    15 C15     18.0122  38.8951   4.1774   C.2       1 RES1   0.0000
    16 C16     16.8287  38.1980   3.9212   C.2       1 RES1   0.0000
    17 N17     16.3711  37.9800   2.6683   N.2       1 RES1   0.0000
    18 C18     17.0627  38.4596   1.5917   C.2       1 RES1   0.0000
    19 C19     16.4074  38.1999   0.2324   C.3       1 RES1   0.0000
    20 F20     15.4704  37.2829   0.3952   F         1 RES1   0.0000
    21 F21     15.8010  39.3031  -0.2165   F         1 RES1   0.0000
    22 F22     17.2534  37.7306  -0.7034   F         1 RES1   0.0000
    23 C23     21.8894  39.3770   1.2666   C.2       1 RES1   0.0000
    24 O24     21.6520  38.0642   1.1383   O.2       1 RES1   0.0000
    25 N25     23.0937  39.7477   1.7068   N.am      1 RES1   0.0000
    26 C26     25.1351  42.6262   1.4541   C.3       1 RES1   0.0000
    27 C27     26.2364  43.2999   2.2699   C.3       1 RES1   0.0000
@<TRIPOS>BOND
     1     1     2    1
     2     2     3    1
     3     3     4    1
     4     2     5    1
     5     5     6    1
     6     6     7    1
     7     7     8    1
     8     8     9    2
     9     9    10    1
    10    10    11    2
    11    11    12    1
    12    12    13    1
    13    13    14    2
    14    14    15    1
    15    15    16    2
    16    16    17    1
    17    17    18    2
    18    18    19    1
    19    19    20    1
    20    19    21    1
    21    19    22    1
    22    11    23    1
    23    23    24    2
    24    23    25   am
    25     7    26    1
    26    26    27    1
    27    27     2    1
    28    25     8    1
    29    18    13    1
@<TRIPOS>SUBSTRUCTURE
     1 RES1        1 GROUP             0 ****  ****    0  
@<TRIPOS>MOLECULE
ligand_88
    27    29     1     0     0
SMALL
USER_CHARGES
****
Generated from the CSD

@<TRIPOS>ATOM
     1 C1      28.1495  41.8353   1.4807   C.3       1 RES1   0.0000
     2 C2      27.3085  42.3309   2.6974   C.3       1 RES1   0.0000
     3 C3      28.2995  43.0557   3.6506   C.3       1 RES1   0.0000
     4 N4      27.6955  43.5967   4.8585   N.3       1 RES1   1.0000
     5 C5      26.6908  41.1207   3.3721   C.3       1 RES1   0.0000
     6 C6      25.6022  40.5002   2.5296   C.3       1 RES1   0.0000
     7 N7      24.5785  41.4883   2.1905   N.pl3     1 RES1   0.0000
     8 C8      23.2849  41.0514   1.8974   C.2       1 RES1   0.0000
     9 N9      22.3684  41.9996   1.6838   N.2       1 RES1   0.0000
    10 C10     21.1333  41.6351   1.2946   C.2       1 RES1   0.0000
    11 C11     20.8264  40.2928   1.0455   C.2       1 RES1   0.0000
    12 S12     19.2687  39.7674   0.3898   S.3       1 RES1   0.0000
    13 C13     19.4841  39.5127  -1.3583   C.2       1 RES1   0.0000
    14 C14     20.7926  39.5323  -1.9076   C.2       1 RES1   0.0000
    15 C15     20.9891  39.4035  -3.2972   C.2       1 RES1   0.0000
    16 C16     19.8672  39.2061  -4.1063   C.2       1 RES1   0.0000
    17 N17     18.6114  39.1630  -3.6084   N.2       1 RES1   0.0000
    18 C18     18.4004  39.3001  -2.2652   C.2       1 RES1   0.0000
    19 C19     16.9405  39.1703  -1.8219   C.3       1 RES1   0.0000
    20 F20     16.1741  39.2723  -2.8932   F         1 RES1   0.0000
    21 F21     16.7144  37.9640  -1.2929   F         1 RES1   0.0000
    22 F22     16.5408  40.1276  -0.9644   F         1 RES1   0.0000
    23 C23     21.8894  39.3770   1.2666   C.2       1 RES1   0.0000
    24 O24     21.6520  38.0642   1.1383   O.2       1 RES1   0.0000
    25 N25     23.0937  39.7477   1.7068   N.am      1 RES1   0.0000
    26 C26     25.1354  42.6258   1.4535   C.3       1 RES1   0.0000
    27 C27     26.2366  43.2997   2.2692   C.3       1 RES1   0.0000
@<TRIPOS>BOND
     1     1     2    1
     2     2     3    1
     3     3     4    1
     4     2     5    1
     5     5     6    1
     6     6     7    1
     7     7     8    1
     8     8     9    2
     9     9    10    1
    10    10    11    2
    11    11    12    1
    12    12    13    1
    13    13    14    2
    14    14    15    1
    15    15    16    2
    16    16    17    1
    17    17    18    2
    18    18    19    1
    19    19    20    1
    20    19    21    1
    21    19    22    1
    22    11    23    1
    23    23    24    2
    24    23    25   am
    25     7    26    1
    26    26    27    1
    27    27     2    1
    28    25     8    1
    29    18    13    1
@<TRIPOS>SUBSTRUCTURE
     1 RES1        1 GROUP             0 ****  ****    0  
@<TRIPOS>MOLECULE
ligand_89
    27    29     1     0     0
SMALL
USER_CHARGES
****
Generated from the CSD

@<TRIPOS>ATOM
     1 C1      26.6431  41.1695   3.4808   C.3       1 RES1   0.0000
     2 C2      27.3007  42.3456   2.6952   C.3       1 RES1   0.0000
     3 C3      28.3463  42.9833   3.6524   C.3       1 RES1   0.0000
     4 N4      27.7948  43.5084   4.8921   N.3       1 RES1   1.0000
     5 C5      26.2147  43.3414   2.3341   C.3       1 RES1   0.0000
     6 C6      25.2834  42.8005   1.2758   C.3       1 RES1   0.0000
     7 N7      26.0291  42.3872   0.0873   N.pl3     1 RES1   0.0000
     8 C8      25.3778  42.3640  -1.1479   C.2       1 RES1   0.0000
     9 N9      26.1274  42.0655  -2.2126   N.2       1 RES1   0.0000
    10 C10     25.5307  41.9260  -3.4102   C.2       1 RES1   0.0000
    11 C11     24.1399  42.0188  -3.5340   C.2       1 RES1   0.0000
    12 S12     23.2852  41.6977  -5.0501   S.3       1 RES1   0.0000
    13 C13     22.9158  43.2698  -5.7979   C.2       1 RES1   0.0000
    14 C14     23.5078  44.4468  -5.2702   C.2       1 RES1   0.0000
    15 C15     23.1801  45.7124  -5.7964   C.2       1 RES1   0.0000
    16 C16     22.2993  45.7683  -6.8796   C.2       1 RES1   0.0000
    17 N17     21.7361  44.6624  -7.4153   N.2       1 RES1   0.0000
    18 C18     22.0313  43.4279  -6.9091   C.2       1 RES1   0.0000
    19 C19     21.3782  42.2534  -7.6431   C.3       1 RES1   0.0000
    20 F20     20.4153  42.7317  -8.4109   F         1 RES1   0.0000
    21 F21     22.2592  41.6532  -8.4492   F         1 RES1   0.0000
    22 F22     20.8114  41.3445  -6.8281   F         1 RES1   0.0000
    23 C23     23.4416  42.2988  -2.3293   C.2       1 RES1   0.0000
    24 O24     22.1165  42.4932  -2.3776   O.2       1 RES1   0.0000
    25 N25     24.0526  42.4903  -1.1581   N.am      1 RES1   0.0000
    26 C26     27.0229  41.3549   0.3935   C.3       1 RES1   0.0000
    27 C27     28.0010  41.8566   1.4536   C.3       1 RES1   0.0000
@<TRIPOS>BOND
     1     1     2    1
     2     2     3    1
     3     3     4    1
     4     2     5    1
     5     5     6    1
     6     6     7    1
     7     7     8    1
     8     8     9    2
     9     9    10    1
    10    10    11    2
    11    11    12    1
    12    12    13    1
    13    13    14    2
    14    14    15    1
    15    15    16    2
    16    16    17    1
    17    17    18    2
    18    18    19    1
    19    19    20    1
    20    19    21    1
    21    19    22    1
    22    11    23    1
    23    23    24    2
    24    23    25   am
    25     7    26    1
    26    26    27    1
    27    27     2    1
    28    25     8    1
    29    18    13    1
@<TRIPOS>SUBSTRUCTURE
     1 RES1        1 GROUP             0 ****  ****    0  
@<TRIPOS>MOLECULE
ligand_90
    27    29     1     0     0
SMALL
USER_CHARGES
****
Generated from the CSD

@<TRIPOS>ATOM
     1 C1      26.6427  41.1699   3.4811   C.3       1 RES1   0.0000
     2 C2      27.3007  42.3457   2.6952   C.3       1 RES1   0.0000
     3 C3      28.3465  42.9831   3.6523   C.3       1 RES1   0.0000
     4 N4      27.7952  43.5087   4.8918   N.3       1 RES1   1.0000
     5 C5      26.2151  43.3417   2.3339   C.3       1 RES1   0.0000
     6 C6      25.2836  42.8010   1.2757   C.3       1 RES1   0.0000
     7 N7      26.0291  42.3872   0.0873   N.pl3     1 RES1   0.0000
     8 C8      25.3778  42.3640  -1.1479   C.2       1 RES1   0.0000
     9 N9      26.1274  42.0655  -2.2126   N.2       1 RES1   0.0000
    10 C10     25.5307  41.9260  -3.4102   C.2       1 RES1   0.0000
    11 C11     24.1399  42.0188  -3.5340   C.2       1 RES1   0.0000
    12 S12     23.2852  41.6977  -5.0501   S.3       1 RES1   0.0000
    13 C13     22.6543  40.0358  -4.9656   C.2       1 RES1   0.0000
    14 C14     22.7052  39.3349  -3.7326   C.2       1 RES1   0.0000
    15 C15     22.2778  37.9945  -3.6514   C.2       1 RES1   0.0000
    16 C16     21.7583  37.3971  -4.8027   C.2       1 RES1   0.0000
    17 N17     21.6791  38.0468  -5.9853   N.2       1 RES1   0.0000
    18 C18     22.1018  39.3424  -6.0863   C.2       1 RES1   0.0000
    19 C19     21.9010  39.9842  -7.4620   C.3       1 RES1   0.0000
    20 F20     21.6522  39.0224  -8.3329   F         1 RES1   0.0000
    21 F21     20.8350  40.7903  -7.4545   F         1 RES1   0.0000
    22 F22     22.9766  40.6532  -7.9171   F         1 RES1   0.0000
    23 C23     23.4416  42.2988  -2.3293   C.2       1 RES1   0.0000
    24 O24     22.1165  42.4932  -2.3776   O.2       1 RES1   0.0000
    25 N25     24.0526  42.4903  -1.1581   N.am      1 RES1   0.0000
    26 C26     27.0225  41.3546   0.3937   C.3       1 RES1   0.0000
    27 C27     28.0008  41.8561   1.4537   C.3       1 RES1   0.0000
@<TRIPOS>BOND
     1     1     2    1
     2     2     3    1
     3     3     4    1
     4     2     5    1
     5     5     6    1
     6     6     7    1
     7     7     8    1
     8     8     9    2
     9     9    10    1
    10    10    11    2
    11    11    12    1
    12    12    13    1
    13    13    14    2
    14    14    15    1
    15    15    16    2
    16    16    17    1
    17    17    18    2
    18    18    19    1
    19    19    20    1
    20    19    21    1
    21    19    22    1
    22    11    23    1
    23    23    24    2
    24    23    25   am
    25     7    26    1
    26    26    27    1
    27    27     2    1
    28    25     8    1
    29    18    13    1
@<TRIPOS>SUBSTRUCTURE
     1 RES1        1 GROUP             0 ****  ****    0  
@<TRIPOS>MOLECULE
ligand_91
    27    29     1     0     0
SMALL
USER_CHARGES
****
Generated from the CSD

@<TRIPOS>ATOM
     1 C1      26.2825  43.4432   2.2896   C.3       1 RES1   0.0000
     2 C2      27.3134  42.3414   2.6851   C.3       1 RES1   0.0000
     3 C3      28.2834  42.9945   3.7091   C.3       1 RES1   0.0000
     4 N4      27.6468  43.4865   4.9212   N.3       1 RES1   1.0000
     5 C5      28.0529  41.9114   1.4324   C.3       1 RES1   0.0000
     6 C6      27.1666  41.1248   0.4967   C.3       1 RES1   0.0000
     7 N7      26.5816  39.9712   1.1796   N.pl3     1 RES1   0.0000
     8 C8      26.1875  38.8643   0.4249   C.2       1 RES1   0.0000
     9 N9      25.7427  37.8048   1.1061   N.2       1 RES1   0.0000
    10 C10     25.2522  36.7528   0.4261   C.2       1 RES1   0.0000
    11 C11     25.1393  36.7892  -0.9682   C.2       1 RES1   0.0000
    12 S12     24.3667  35.5017  -1.9051   S.3       1 RES1   0.0000
    13 C13     25.6601  34.4801  -2.5761   C.2       1 RES1   0.0000
    14 C14     26.9925  34.6568  -2.1203   C.2       1 RES1   0.0000
    15 C15     28.0479  33.9115  -2.6832   C.2       1 RES1   0.0000
    16 C16     27.7372  32.9633  -3.6613   C.2       1 RES1   0.0000
    17 N17     26.4751  32.7596  -4.1001   N.2       1 RES1   0.0000
    18 C18     25.4409  33.4829  -3.5759   C.2       1 RES1   0.0000
    19 C19     24.0548  33.1138  -4.1117   C.3       1 RES1   0.0000
    20 F20     24.2152  32.3883  -5.2042   F         1 RES1   0.0000
    21 F21     23.3964  32.3540  -3.2311   F         1 RES1   0.0000
    22 F22     23.2998  34.1737  -4.4553   F         1 RES1   0.0000
    23 C23     25.6056  37.9817  -1.5829   C.2       1 RES1   0.0000
    24 O24     25.6165  38.0605  -2.9208   O.2       1 RES1   0.0000
    25 N25     26.1417  38.9950  -0.8992   N.am      1 RES1   0.0000
    26 C26     25.7824  40.3679   2.3419   C.3       1 RES1   0.0000
    27 C27     26.6371  41.1590   3.3298   C.3       1 RES1   0.0000
@<TRIPOS>BOND
     1     1     2    1
     2     2     3    1
     3     3     4    1
     4     2     5    1
     5     5     6    1
     6     6     7    1
     7     7     8    1
     8     8     9    2
     9     9    10    1
    10    10    11    2
    11    11    12    1
    12    12    13    1
    13    13    14    2
    14    14    15    1
    15    15    16    2
    16    16    17    1
    17    17    18    2
    18    18    19    1
    19    19    20    1
    20    19    21    1
    21    19    22    1
    22    11    23    1
    23    23    24    2
    24    23    25   am
    25     7    26    1
    26    26    27    1
    27    27     2    1
    28    25     8    1
    29    18    13    1
@<TRIPOS>SUBSTRUCTURE
     1 RES1        1 GROUP             0 ****  ****    0  
@<TRIPOS>MOLECULE
ligand_92
    27    29     1     0     0
SMALL
USER_CHARGES
****
Generated from the CSD

@<TRIPOS>ATOM
     1 C1      26.2829  43.4434   2.2891   C.3       1 RES1   0.0000
     2 C2      27.3134  42.3414   2.6851   C.3       1 RES1   0.0000
     3 C3      28.2833  42.9944   3.7093   C.3       1 RES1   0.0000
     4 N4      27.6463  43.4867   4.9212   N.3       1 RES1   1.0000
     5 C5      28.0533  41.9111   1.4327   C.3       1 RES1   0.0000
     6 C6      27.1671  41.1245   0.4968   C.3       1 RES1   0.0000
     7 N7      26.5816  39.9712   1.1796   N.pl3     1 RES1   0.0000
     8 C8      26.1875  38.8643   0.4249   C.2       1 RES1   0.0000
     9 N9      25.7427  37.8048   1.1061   N.2       1 RES1   0.0000
    10 C10     25.2522  36.7528   0.4261   C.2       1 RES1   0.0000
    11 C11     25.1393  36.7892  -0.9682   C.2       1 RES1   0.0000
    12 S12     24.3667  35.5017  -1.9051   S.3       1 RES1   0.0000
    13 C13     22.7060  36.0287  -2.2680   C.2       1 RES1   0.0000
    14 C14     22.3268  37.3688  -1.9953   C.2       1 RES1   0.0000
    15 C15     21.0005  37.7961  -2.2066   C.2       1 RES1   0.0000
    16 C16     20.0891  36.8796  -2.7374   C.2       1 RES1   0.0000
    17 N17     20.4274  35.6030  -3.0254   N.2       1 RES1   0.0000
    18 C18     21.7052  35.1671  -2.8139   C.2       1 RES1   0.0000
    19 C19     21.9752  33.7210  -3.2388   C.3       1 RES1   0.0000
    20 F20     20.8123  33.1214  -3.4218   F         1 RES1   0.0000
    21 F21     22.6211  33.6865  -4.4083   F         1 RES1   0.0000
    22 F22     22.6470  32.9972  -2.3242   F         1 RES1   0.0000
    23 C23     25.6056  37.9817  -1.5829   C.2       1 RES1   0.0000
    24 O24     25.6165  38.0605  -2.9208   O.2       1 RES1   0.0000
    25 N25     26.1417  38.9950  -0.8992   N.am      1 RES1   0.0000
    26 C26     25.7821  40.3683   2.3416   C.3       1 RES1   0.0000
    27 C27     26.6367  41.1592   3.3296   C.3       1 RES1   0.0000
@<TRIPOS>BOND
     1     1     2    1
     2     2     3    1
     3     3     4    1
     4     2     5    1
     5     5     6    1
     6     6     7    1
     7     7     8    1
     8     8     9    2
     9     9    10    1
    10    10    11    2
    11    11    12    1
    12    12    13    1
    13    13    14    2
    14    14    15    1
    15    15    16    2
    16    16    17    1
    17    17    18    2
    18    18    19    1
    19    19    20    1
    20    19    21    1
    21    19    22    1
    22    11    23    1
    23    23    24    2
    24    23    25   am
    25     7    26    1
    26    26    27    1
    27    27     2    1
    28    25     8    1
    29    18    13    1
@<TRIPOS>SUBSTRUCTURE
     1 RES1        1 GROUP             0 ****  ****    0  
@<TRIPOS>MOLECULE
ligand_93
    27    29     1     0     0
SMALL
USER_CHARGES
****
Generated from the CSD

@<TRIPOS>ATOM
     1 C1      28.1397  41.8810   1.4558   C.3       1 RES1   0.0000
     2 C2      27.3079  42.3342   2.6950   C.3       1 RES1   0.0000
     3 C3      28.3038  43.0371   3.6595   C.3       1 RES1   0.0000
     4 N4      27.7093  43.5335   4.8911   N.3       1 RES1   1.0000
     5 C5      26.7051  41.1003   3.3394   C.3       1 RES1   0.0000
     6 C6      25.6121  40.4976   2.4896   C.3       1 RES1   0.0000
     7 N7      24.5785  41.4883   2.1905   N.pl3     1 RES1   0.0000
     8 C8      23.2849  41.0514   1.8974   C.2       1 RES1   0.0000
     9 N9      23.0951  39.7296   1.8603   N.2       1 RES1   0.0000
    10 C10     21.8480  39.2557   1.6871   C.2       1 RES1   0.0000
    11 C11     20.7533  40.1247   1.6187   C.2       1 RES1   0.0000
    12 S12     19.0783  39.5583   1.5420   S.3       1 RES1   0.0000
    13 C13     18.5639  39.6421  -0.1596   C.2       1 RES1   0.0000
    14 C14     19.5330  39.8847  -1.1676   C.2       1 RES1   0.0000
    15 C15     19.1462  40.0259  -2.5154   C.2       1 RES1   0.0000
    16 C16     17.7945  39.8699  -2.8332   C.2       1 RES1   0.0000
    17 N17     16.8527  39.6184  -1.8969   N.2       1 RES1   0.0000
    18 C18     17.2074  39.4923  -0.5832   C.2       1 RES1   0.0000
    19 C19     16.0583  39.1463   0.3679   C.3       1 RES1   0.0000
    20 F20     14.9195  39.3641  -0.2655   F         1 RES1   0.0000
    21 F21     16.0859  37.8488   0.6875   F         1 RES1   0.0000
    22 F22     16.0301  39.8923   1.4878   F         1 RES1   0.0000
    23 C23     21.0698  41.5064   1.7101   C.2       1 RES1   0.0000
    24 O24     20.0890  42.4077   1.5624   O.2       1 RES1   0.0000
    25 N25     22.3183  41.9640   1.8256   N.am      1 RES1   0.0000
    26 C26     25.1204  42.6510   1.4823   C.3       1 RES1   0.0000
    27 C27     26.2253  43.3080   2.3068   C.3       1 RES1   0.0000
@<TRIPOS>BOND
     1     1     2    1
     2     2     3    1
     3     3     4    1
     4     2     5    1
     5     5     6    1
     6     6     7    1
     7     7     8    1
     8     8     9    2
     9     9    10    1
    10    10    11    2
    11    11    12    1
    12    12    13    1
    13    13    14    2
    14    14    15    1
    15    15    16    2
    16    16    17    1
    17    17    18    2
    18    18    19    1
    19    19    20    1
    20    19    21    1
    21    19    22    1
    22    11    23    1
    23    23    24    2
    24    23    25   am
    25     7    26    1
    26    26    27    1
    27    27     2    1
    28    25     8    1
    29    18    13    1
@<TRIPOS>SUBSTRUCTURE
     1 RES1        1 GROUP             0 ****  ****    0  
@<TRIPOS>MOLECULE
ligand_94
    27    29     1     0     0
SMALL
USER_CHARGES
****
Generated from the CSD

@<TRIPOS>ATOM
     1 C1      28.1396  41.8814   1.4556   C.3       1 RES1   0.0000
     2 C2      27.3079  42.3343   2.6950   C.3       1 RES1   0.0000
     3 C3      28.3038  43.0370   3.6596   C.3       1 RES1   0.0000
     4 N4      27.7089  43.5355   4.8902   N.3       1 RES1   1.0000
     5 C5      26.7052  41.1001   3.3391   C.3       1 RES1   0.0000
     6 C6      25.6122  40.4976   2.4893   C.3       1 RES1   0.0000
     7 N7      24.5785  41.4883   2.1905   N.pl3     1 RES1   0.0000
     8 C8      23.2849  41.0514   1.8974   C.2       1 RES1   0.0000
     9 N9      23.0951  39.7296   1.8603   N.2       1 RES1   0.0000
    10 C10     21.8480  39.2557   1.6871   C.2       1 RES1   0.0000
    11 C11     20.7533  40.1247   1.6187   C.2       1 RES1   0.0000
    12 S12     19.0783  39.5583   1.5420   S.3       1 RES1   0.0000
    13 C13     18.4052  39.6584   3.1864   C.2       1 RES1   0.0000
    14 C14     19.1394  40.3301   4.1983   C.2       1 RES1   0.0000
    15 C15     18.6653  40.3652   5.5250   C.2       1 RES1   0.0000
    16 C16     17.4335  39.7663   5.8011   C.2       1 RES1   0.0000
    17 N17     16.7033  39.1372   4.8534   N.2       1 RES1   0.0000
    18 C18     17.1539  39.0810   3.5645   C.2       1 RES1   0.0000
    19 C19     16.2062  38.3960   2.5760   C.3       1 RES1   0.0000
    20 F20     15.3006  37.7285   3.2686   F         1 RES1   0.0000
    21 F21     15.5498  39.3036   1.8468   F         1 RES1   0.0000
    22 F22     16.8091  37.5073   1.7646   F         1 RES1   0.0000
    23 C23     21.0698  41.5064   1.7101   C.2       1 RES1   0.0000
    24 O24     20.0890  42.4077   1.5624   O.2       1 RES1   0.0000
    25 N25     22.3183  41.9640   1.8256   N.am      1 RES1   0.0000
    26 C26     25.1202  42.6513   1.4826   C.3       1 RES1   0.0000
    27 C27     26.2252  43.3081   2.3071   C.3       1 RES1   0.0000
@<TRIPOS>BOND
     1     1     2    1
     2     2     3    1
     3     3     4    1
     4     2     5    1
     5     5     6    1
     6     6     7    1
     7     7     8    1
     8     8     9    2
     9     9    10    1
    10    10    11    2
    11    11    12    1
    12    12    13    1
    13    13    14    2
    14    14    15    1
    15    15    16    2
    16    16    17    1
    17    17    18    2
    18    18    19    1
    19    19    20    1
    20    19    21    1
    21    19    22    1
    22    11    23    1
    23    23    24    2
    24    23    25   am
    25     7    26    1
    26    26    27    1
    27    27     2    1
    28    25     8    1
    29    18    13    1
@<TRIPOS>SUBSTRUCTURE
     1 RES1        1 GROUP             0 ****  ****    0  
@<TRIPOS>MOLECULE
ligand_95
    27    29     1     0     0
SMALL
USER_CHARGES
****
Generated from the CSD

@<TRIPOS>ATOM
     1 C1      26.6790  41.1376   3.4625   C.3       1 RES1   0.0000
     2 C2      27.3033  42.3428   2.6939   C.3       1 RES1   0.0000
     3 C3      28.3315  42.9951   3.6600   C.3       1 RES1   0.0000
     4 N4      27.7665  43.4868   4.9073   N.3       1 RES1   1.0000
     5 C5      26.1899  43.3133   2.3477   C.3       1 RES1   0.0000
     6 C6      25.2732  42.7623   1.2819   C.3       1 RES1   0.0000
     7 N7      26.0291  42.3872   0.0873   N.pl3     1 RES1   0.0000
     8 C8      25.3778  42.3640  -1.1479   C.2       1 RES1   0.0000
     9 N9      24.0714  42.6425  -1.1394   N.2       1 RES1   0.0000
    10 C10     23.4185  42.7374  -2.3118   C.2       1 RES1   0.0000
    11 C11     24.1036  42.6194  -3.5262   C.2       1 RES1   0.0000
    12 S12     23.3310  42.8824  -5.0966   S.3       1 RES1   0.0000
    13 C13     22.9474  41.2834  -5.7771   C.2       1 RES1   0.0000
    14 C14     23.0669  40.1318  -4.9564   C.2       1 RES1   0.0000
    15 C15     22.8378  38.8462  -5.4865   C.2       1 RES1   0.0000
    16 C16     22.4422  38.7449  -6.8228   C.2       1 RES1   0.0000
    17 N17     22.3008  39.8257  -7.6221   N.2       1 RES1   0.0000
    18 C18     22.5324  41.0790  -7.1292   C.2       1 RES1   0.0000
    19 C19     22.2771  42.2211  -8.1167   C.3       1 RES1   0.0000
    20 F20     22.1949  41.7057  -9.3304   F         1 RES1   0.0000
    21 F21     21.1050  42.8106  -7.8621   F         1 RES1   0.0000
    22 F22     23.2554  43.1449  -8.1512   F         1 RES1   0.0000
    23 C23     25.4964  42.3642  -3.4139   C.2       1 RES1   0.0000
    24 O24     26.2083  42.1479  -4.5286   O.2       1 RES1   0.0000
    25 N25     26.1202  42.2169  -2.2431   N.am      1 RES1   0.0000
    26 C26     27.0513  41.3785   0.3781   C.3       1 RES1   0.0000
    27 C27     28.0159  41.8915   1.4451   C.3       1 RES1   0.0000
@<TRIPOS>BOND
     1     1     2    1
     2     2     3    1
     3     3     4    1
     4     2     5    1
     5     5     6    1
     6     6     7    1
     7     7     8    1
     8     8     9    2
     9     9    10    1
    10    10    11    2
    11    11    12    1
    12    12    13    1
    13    13    14    2
    14    14    15    1
    15    15    16    2
    16    16    17    1
    17    17    18    2
    18    18    19    1
    19    19    20    1
    20    19    21    1
    21    19    22    1
    22    11    23    1
    23    23    24    2
    24    23    25   am
    25     7    26    1
    26    26    27    1
    27    27     2    1
    28    25     8    1
    29    18    13    1
@<TRIPOS>SUBSTRUCTURE
     1 RES1        1 GROUP             0 ****  ****    0  
@<TRIPOS>MOLECULE
ligand_96
    27    29     1     0     0
SMALL
USER_CHARGES
****
Generated from the CSD

@<TRIPOS>ATOM
     1 C1      26.6790  41.1376   3.4625   C.3       1 RES1   0.0000
     2 C2      27.3033  42.3428   2.6939   C.3       1 RES1   0.0000
     3 C3      28.3315  42.9951   3.6600   C.3       1 RES1   0.0000
     4 N4      27.7666  43.4869   4.9072   N.3       1 RES1   1.0000
     5 C5      26.1899  43.3133   2.3477   C.3       1 RES1   0.0000
     6 C6      25.2732  42.7624   1.2819   C.3       1 RES1   0.0000
     7 N7      26.0291  42.3872   0.0873   N.pl3     1 RES1   0.0000
     8 C8      25.3778  42.3640  -1.1479   C.2       1 RES1   0.0000
     9 N9      24.0714  42.6425  -1.1394   N.2       1 RES1   0.0000
    10 C10     23.4185  42.7374  -2.3118   C.2       1 RES1   0.0000
    11 C11     24.1036  42.6194  -3.5262   C.2       1 RES1   0.0000
    12 S12     23.3310  42.8824  -5.0966   S.3       1 RES1   0.0000
    13 C13     23.7308  44.5363  -5.6179   C.2       1 RES1   0.0000
    14 C14     24.7072  45.2746  -4.8997   C.2       1 RES1   0.0000
    15 C15     24.9943  46.6102  -5.2456   C.2       1 RES1   0.0000
    16 C16     24.3292  47.1649  -6.3421   C.2       1 RES1   0.0000
    17 N17     23.4095  46.4789  -7.0566   N.2       1 RES1   0.0000
    18 C18     23.1080  45.1875  -6.7271   C.2       1 RES1   0.0000
    19 C19     22.0978  44.5018  -7.6511   C.3       1 RES1   0.0000
    20 F20     21.5049  45.4332  -8.3767   F         1 RES1   0.0000
    21 F21     22.7199  43.6803  -8.5022   F         1 RES1   0.0000
    22 F22     21.1249  43.8357  -7.0018   F         1 RES1   0.0000
    23 C23     25.4964  42.3642  -3.4139   C.2       1 RES1   0.0000
    24 O24     26.2083  42.1479  -4.5286   O.2       1 RES1   0.0000
    25 N25     26.1202  42.2169  -2.2431   N.am      1 RES1   0.0000
    26 C26     27.0512  41.3784   0.3781   C.3       1 RES1   0.0000
    27 C27     28.0159  41.8914   1.4451   C.3       1 RES1   0.0000
@<TRIPOS>BOND
     1     1     2    1
     2     2     3    1
     3     3     4    1
     4     2     5    1
     5     5     6    1
     6     6     7    1
     7     7     8    1
     8     8     9    2
     9     9    10    1
    10    10    11    2
    11    11    12    1
    12    12    13    1
    13    13    14    2
    14    14    15    1
    15    15    16    2
    16    16    17    1
    17    17    18    2
    18    18    19    1
    19    19    20    1
    20    19    21    1
    21    19    22    1
    22    11    23    1
    23    23    24    2
    24    23    25   am
    25     7    26    1
    26    26    27    1
    27    27     2    1
    28    25     8    1
    29    18    13    1
@<TRIPOS>SUBSTRUCTURE
     1 RES1        1 GROUP             0 ****  ****    0  
@<TRIPOS>MOLECULE
ligand_97
    27    29     1     0     0
SMALL
USER_CHARGES
****
Generated from the CSD

@<TRIPOS>ATOM
     1 C1      26.2519  43.4279   2.3280   C.3       1 RES1   0.0000
     2 C2      27.3107  42.3405   2.6879   C.3       1 RES1   0.0000
     3 C3      28.2948  43.0011   3.6935   C.3       1 RES1   0.0000
     4 N4      27.6803  43.4716   4.9254   N.3       1 RES1   1.0000
     5 C5      28.0260  41.9339   1.4135   C.3       1 RES1   0.0000
     6 C6      27.1300  41.1404   0.4929   C.3       1 RES1   0.0000
     7 N7      26.5816  39.9712   1.1796   N.pl3     1 RES1   0.0000
     8 C8      26.1875  38.8643   0.4249   C.2       1 RES1   0.0000
     9 N9      26.2952  38.9772  -0.9018   N.2       1 RES1   0.0000
    10 C10     26.0296  37.9052  -1.6700   C.2       1 RES1   0.0000
    11 C11     25.7155  36.6695  -1.0935   C.2       1 RES1   0.0000
    12 S12     25.5034  35.1908  -2.0426   S.3       1 RES1   0.0000
    13 C13     23.7542  34.9325  -2.2443   C.2       1 RES1   0.0000
    14 C14     22.8521  35.9641  -1.8755   C.2       1 RES1   0.0000
    15 C15     21.4597  35.7628  -1.9581   C.2       1 RES1   0.0000
    16 C16     20.9984  34.5427  -2.4591   C.2       1 RES1   0.0000
    17 N17     21.8345  33.5501  -2.8367   N.2       1 RES1   0.0000
    18 C18     23.1874  33.7222  -2.7504   C.2       1 RES1   0.0000
    19 C19     24.0242  32.5486  -3.2673   C.3       1 RES1   0.0000
    20 F20     23.2317  31.4983  -3.3860   F         1 RES1   0.0000
    21 F21     24.5064  32.8142  -4.4851   F         1 RES1   0.0000
    22 F22     25.0285  32.1881  -2.4468   F         1 RES1   0.0000
    23 C23     25.6695  36.6573   0.3261   C.2       1 RES1   0.0000
    24 O24     25.2875  35.5362   0.9532   O.2       1 RES1   0.0000
    25 N25     25.8806  37.7429   1.0735   N.am      1 RES1   0.0000
    26 C26     25.8050  40.3443   2.3649   C.3       1 RES1   0.0000
    27 C27     26.6706  41.1412   3.3384   C.3       1 RES1   0.0000
@<TRIPOS>BOND
     1     1     2    1
     2     2     3    1
     3     3     4    1
     4     2     5    1
     5     5     6    1
     6     6     7    1
     7     7     8    1
     8     8     9    2
     9     9    10    1
    10    10    11    2
    11    11    12    1
    12    12    13    1
    13    13    14    2
    14    14    15    1
    15    15    16    2
    16    16    17    1
    17    17    18    2
    18    18    19    1
    19    19    20    1
    20    19    21    1
    21    19    22    1
    22    11    23    1
    23    23    24    2
    24    23    25   am
    25     7    26    1
    26    26    27    1
    27    27     2    1
    28    25     8    1
    29    18    13    1
@<TRIPOS>SUBSTRUCTURE
     1 RES1        1 GROUP             0 ****  ****    0  
@<TRIPOS>MOLECULE
ligand_98
    27    29     1     0     0
SMALL
USER_CHARGES
****
Generated from the CSD

@<TRIPOS>ATOM
     1 C1      26.2520  43.4280   2.3279   C.3       1 RES1   0.0000
     2 C2      27.3107  42.3405   2.6879   C.3       1 RES1   0.0000
     3 C3      28.2948  43.0011   3.6935   C.3       1 RES1   0.0000
     4 N4      27.6803  43.4716   4.9254   N.3       1 RES1   1.0000
     5 C5      28.0260  41.9338   1.4135   C.3       1 RES1   0.0000
     6 C6      27.1301  41.1404   0.4929   C.3       1 RES1   0.0000
     7 N7      26.5816  39.9712   1.1796   N.pl3     1 RES1   0.0000
     8 C8      26.1875  38.8643   0.4249   C.2       1 RES1   0.0000
     9 N9      26.2952  38.9772  -0.9018   N.2       1 RES1   0.0000
    10 C10     26.0296  37.9052  -1.6700   C.2       1 RES1   0.0000
    11 C11     25.7155  36.6695  -1.0935   C.2       1 RES1   0.0000
    12 S12     25.5034  35.1908  -2.0426   S.3       1 RES1   0.0000
    13 C13     27.0248  34.2726  -1.9475   C.2       1 RES1   0.0000
    14 C14     28.0270  34.6811  -1.0294   C.2       1 RES1   0.0000
    15 C15     29.2689  34.0167  -0.9806   C.2       1 RES1   0.0000
    16 C16     29.4628  32.9187  -1.8227   C.2       1 RES1   0.0000
    17 N17     28.5189  32.4951  -2.6925   N.2       1 RES1   0.0000
    18 C18     27.3140  33.1357  -2.7636   C.2       1 RES1   0.0000
    19 C19     26.3098  32.5208  -3.7425   C.3       1 RES1   0.0000
    20 F20     26.9630  31.6897  -4.5349   F         1 RES1   0.0000
    21 F21     25.3953  31.7990  -3.0876   F         1 RES1   0.0000
    22 F22     25.6993  33.4187  -4.5379   F         1 RES1   0.0000
    23 C23     25.6695  36.6573   0.3261   C.2       1 RES1   0.0000
    24 O24     25.2875  35.5362   0.9532   O.2       1 RES1   0.0000
    25 N25     25.8806  37.7429   1.0735   N.am      1 RES1   0.0000
    26 C26     25.8049  40.3443   2.3648   C.3       1 RES1   0.0000
    27 C27     26.6705  41.1412   3.3384   C.3       1 RES1   0.0000
@<TRIPOS>BOND
     1     1     2    1
     2     2     3    1
     3     3     4    1
     4     2     5    1
     5     5     6    1
     6     6     7    1
     7     7     8    1
     8     8     9    2
     9     9    10    1
    10    10    11    2
    11    11    12    1
    12    12    13    1
    13    13    14    2
    14    14    15    1
    15    15    16    2
    16    16    17    1
    17    17    18    2
    18    18    19    1
    19    19    20    1
    20    19    21    1
    21    19    22    1
    22    11    23    1
    23    23    24    2
    24    23    25   am
    25     7    26    1
    26    26    27    1
    27    27     2    1
    28    25     8    1
    29    18    13    1
@<TRIPOS>SUBSTRUCTURE
     1 RES1        1 GROUP             0 ****  ****    0  
@<TRIPOS>MOLECULE
ligand_99
    27    29     1     0     0
SMALL
USER_CHARGES
****
Generated from the CSD

@<TRIPOS>ATOM
     1 C1      26.4708  41.3583   3.5993   C.3       1 RES1   0.0000
     2 C2      27.1648  42.4894   2.7795   C.3       1 RES1   0.0000
     3 C3      28.2506  43.0982   3.7104   C.3       1 RES1   0.0000
     4 N4      27.7377  43.6903   4.9364   N.3       1 RES1   1.0000
     5 C5      26.1912  43.5760   2.4147   C.3       1 RES1   0.0000
     6 C6      26.8834  44.6300   1.5350   C.3       1 RES1   0.0000
     7 N7      27.4187  43.9837   0.3370   N.pl3     1 RES1   0.0000
     8 C8      26.8045  44.1283  -0.9089   C.2       1 RES1   0.0000
     9 N9      27.4550  43.6178  -1.9581   N.2       1 RES1   0.0000
    10 C10     26.8600  43.6360  -3.1645   C.2       1 RES1   0.0000
    11 C11     25.5531  44.1138  -3.3129   C.2       1 RES1   0.0000
    12 S12     24.6640  44.0261  -4.8406   S.3       1 RES1   0.0000
    13 C13     25.7624  43.3351  -6.0585   C.2       1 RES1   0.0000
    14 C14     25.6084  41.9777  -6.4429   C.2       1 RES1   0.0000
    15 C15     26.5062  41.3835  -7.3523   C.2       1 RES1   0.0000
    16 C16     27.5151  42.1807  -7.8991   C.2       1 RES1   0.0000
    17 N17     27.6731  43.4813  -7.5667   N.2       1 RES1   0.0000
    18 C18     26.8207  44.0706  -6.6759   C.2       1 RES1   0.0000
    19 C19     27.0677  45.5619  -6.4319   C.3       1 RES1   0.0000
    20 F20     28.2627  45.8647  -6.9072   F         1 RES1   0.0000
    21 F21     26.1807  46.3024  -7.1035   F         1 RES1   0.0000
    22 F22     27.0650  45.9126  -5.1324   F         1 RES1   0.0000
    23 C23     24.9447  44.5940  -2.1226   C.2       1 RES1   0.0000
    24 O24     23.7283  45.1518  -2.1952   O.2       1 RES1   0.0000
    25 N25     25.5684  44.6213  -0.9428   N.am      1 RES1   0.0000
    26 C26     28.4192  42.9364   0.6393   C.3       1 RES1   0.0000
    27 C27     27.8003  41.8713   1.5515   C.3       1 RES1   0.0000
@<TRIPOS>BOND
     1     1     2    1
     2     2     3    1
     3     3     4    1
     4     2     5    1
     5     5     6    1
     6     6     7    1
     7     7     8    1
     8     8     9    2
     9     9    10    1
    10    10    11    2
    11    11    12    1
    12    12    13    1
    13    13    14    2
    14    14    15    1
    15    15    16    2
    16    16    17    1
    17    17    18    2
    18    18    19    1
    19    19    20    1
    20    19    21    1
    21    19    22    1
    22    11    23    1
    23    23    24    2
    24    23    25   am
    25     7    26    1
    26    26    27    1
    27    27     2    1
    28    25     8    1
    29    18    13    1
@<TRIPOS>SUBSTRUCTURE
     1 RES1        1 GROUP             0 ****  ****    0  
