@<TRIPOS>MOLECULE
native
    32    35     1     0     0
SMALL
NO_CHARGES
****
Generated from the CSD

@<TRIPOS>ATOM
     1 C1      26.6780 -11.1420   9.0800   C.3       1 RES1   0.0000
     2 S2      27.6400 -12.5140   9.7520   S.o2      1 RES1   0.0000
     3 O3      27.0690 -12.9410  11.0240   O.2       1 RES1   0.0000
     4 O4      27.9040 -13.4820   8.7160   O.2       1 RES1   0.0000
     5 C5      29.1740 -11.7440  10.1500   C.2       1 RES1   0.0000
     6 C6      30.1390 -11.6180   9.1400   C.2       1 RES1   0.0000
     7 C7      31.3270 -10.9550   9.4230   C.2       1 RES1   0.0000
     8 C8      31.5880 -10.4790  10.7210   C.2       1 RES1   0.0000
     9 N9      32.7840  -9.9340  11.0160   N.2       1 RES1   0.0000
    10 C10     33.8620  -9.8110  10.0460   C.3       1 RES1   0.0000
    11 C11     33.5890  -8.6600   9.0590   C.2       1 RES1   0.0000
    12 C12     33.1070  -7.4120   9.4950   C.2       1 RES1   0.0000
    13 C13     32.9240  -6.3460   8.5750   C.2       1 RES1   0.0000
    14 C14     33.2530  -6.5300   7.2210   C.2       1 RES1   0.0000
    15 C15     33.7900  -7.7680   6.7970   C.2       1 RES1   0.0000
    16 Cl16    34.2170  -8.0640   5.1140   Cl        1 RES1   0.0000
    17 C17     33.9430  -8.8250   7.7100   C.2       1 RES1   0.0000
    18 C18     35.2020  -9.5050  10.7180   C.2       1 RES1   0.0000
    19 C19     36.4380  -9.7880  10.1130   C.2       1 RES1   0.0000
    20 C20     37.6150  -9.4380  10.7990   C.2       1 RES1   0.0000
    21 C21     37.5470  -8.8450  12.0710   C.2       1 RES1   0.0000
    22 C22     36.2870  -8.5900  12.6320   C.2       1 RES1   0.0000
    23 N23     35.1690  -8.9240  11.9420   N.2       1 RES1   0.0000
    24 C24     30.6290 -10.6120  11.7400   C.2       1 RES1   0.0000
    25 N25     30.8990 -10.0480  12.9650   N.2       1 RES1   0.0000
    26 C26     30.5390 -10.4270  14.2270   C.2       1 RES1   0.0000
    27 N27     30.9220  -9.6150  15.2530   N.2       1 RES1   0.0000
    28 C28     30.6100  -9.8940  16.5530   C.2       1 RES1   0.0000
    29 C29     29.8560 -11.0470  16.8500   C.2       1 RES1   0.0000
    30 C30     29.4620 -11.8720  15.7730   C.2       1 RES1   0.0000
    31 N31     29.8030 -11.5410  14.4960   N.2       1 RES1   0.0000
    32 C32     29.4020 -11.2360  11.4320   C.2       1 RES1   0.0000
@<TRIPOS>BOND
     1     1     2    1
     2     2     3    2
     3     2     4    2
     4     2     5    1
     5     5     6    2
     6     6     7    1
     7     7     8    2
     8     8     9    1
     9    10     9    1
    10    10    11    1
    11    11    12    2
    12    12    13    1
    13    13    14    2
    14    14    15    1
    15    15    16    1
    16    15    17    2
    17    10    18    1
    18    18    19    2
    19    19    20    1
    20    20    21    2
    21    21    22    1
    22    22    23    2
    23     8    24    1
    24    24    25    1
    25    25    26    1
    26    26    27    2
    27    27    28    1
    28    28    29    2
    29    29    30    1
    30    30    31    2
    31    24    32    2
    32    32     5    1
    33    17    11    1
    34    23    18    1
    35    31    26    1
@<TRIPOS>SUBSTRUCTURE
     1 RES1        1 GROUP             0 ****  ****    0  
@<TRIPOS>MOLECULE
ligand_0
    32    35     1     0     0
SMALL
NO_CHARGES
****
Generated from the CSD

@<TRIPOS>ATOM
     1 C1      26.4814 -10.3476  10.6665   C.3       1 RES1   0.0000
     2 S2      27.4488 -11.8358  10.9963   S.o2      1 RES1   0.0000
     3 O3      27.1507 -12.3319  12.3347   O.2       1 RES1   0.0000
     4 O4      27.3819 -12.7256   9.8632   O.2       1 RES1   0.0000
     5 C5      29.0943 -11.2107  11.0726   C.2       1 RES1   0.0000
     6 C6      29.9019 -11.3169   9.9308   C.2       1 RES1   0.0000
     7 C7      31.1791 -10.7699   9.9564   C.2       1 RES1   0.0000
     8 C8      31.6807 -10.1809  11.1315   C.2       1 RES1   0.0000
     9 N9      32.9559  -9.7498  11.1832   N.2       1 RES1   0.0000
    10 C10     33.8460  -9.7620  10.0319   C.3       1 RES1   0.0000
    11 C11     33.5457  -8.5818   9.0883   C.2       1 RES1   0.0000
    12 C12     33.0561  -7.3549   9.5730   C.2       1 RES1   0.0000
    13 C13     32.8477  -6.2608   8.6923   C.2       1 RES1   0.0000
    14 C14     33.1591  -6.3952   7.3283   C.2       1 RES1   0.0000
    15 C15     33.7038  -7.6119   6.8552   C.2       1 RES1   0.0000
    16 Cl16    34.1096  -7.8460   5.1572   Cl        1 RES1   0.0000
    17 C17     33.8820  -8.6971   7.7296   C.2       1 RES1   0.0000
    18 C18     35.3137  -9.6326  10.4441   C.2       1 RES1   0.0000
    19 C19     36.3453 -10.3527   9.8187   C.2       1 RES1   0.0000
    20 C20     37.6673 -10.1387  10.2488   C.2       1 RES1   0.0000
    21 C21     37.9376  -9.2447  11.2985   C.2       1 RES1   0.0000
    22 C22     36.8697  -8.5561  11.8925   C.2       1 RES1   0.0000
    23 N23     35.6072  -8.7705  11.4478   N.2       1 RES1   0.0000
    24 C24     30.8797 -10.0812  12.2822   C.2       1 RES1   0.0000
    25 N25     31.3879  -9.4149  13.3728   N.2       1 RES1   0.0000
    26 C26     30.8961  -9.2558  14.6372   C.2       1 RES1   0.0000
    27 N27     31.6387  -8.5100  15.5038   N.2       1 RES1   0.0000
    28 C28     31.2385  -8.2809  16.7893   C.2       1 RES1   0.0000
    29 C29     30.0138  -8.8156  17.2370   C.2       1 RES1   0.0000
    30 C30     29.2549  -9.5794  16.3223   C.2       1 RES1   0.0000
    31 N31     29.7062  -9.7732  15.0514   N.2       1 RES1   0.0000
    32 C32     29.5643 -10.5880  12.2324   C.2       1 RES1   0.0000
@<TRIPOS>BOND
     1     1     2    1
     2     2     3    2
     3     2     4    2
     4     2     5    1
     5     5     6    2
     6     6     7    1
     7     7     8    2
     8     8     9    1
     9    10     9    1
    10    10    11    1
    11    11    12    2
    12    12    13    1
    13    13    14    2
    14    14    15    1
    15    15    16    1
    16    15    17    2
    17    10    18    1
    18    18    19    2
    19    19    20    1
    20    20    21    2
    21    21    22    1
    22    22    23    2
    23     8    24    1
    24    24    25    1
    25    25    26    1
    26    26    27    2
    27    27    28    1
    28    28    29    2
    29    29    30    1
    30    30    31    2
    31    24    32    2
    32    32     5    1
    33    17    11    1
    34    23    18    1
    35    31    26    1
@<TRIPOS>SUBSTRUCTURE
     1 RES1        1 GROUP             0 ****  ****    0  
@<TRIPOS>MOLECULE
ligand_1
    32    35     1     0     0
SMALL
NO_CHARGES
****
Generated from the CSD

@<TRIPOS>ATOM
     1 C1      27.6881 -13.6006  11.2923   C.3       1 RES1   0.0000
     2 S2      27.4488 -11.8358  10.9963   S.o2      1 RES1   0.0000
     3 O3      27.0064 -11.6210   9.6235   O.2       1 RES1   0.0000
     4 O4      26.7176 -11.2492  12.0924   O.2       1 RES1   0.0000
     5 C5      29.0943 -11.2107  11.0726   C.2       1 RES1   0.0000
     6 C6      29.9019 -11.3169   9.9308   C.2       1 RES1   0.0000
     7 C7      31.1791 -10.7699   9.9564   C.2       1 RES1   0.0000
     8 C8      31.6807 -10.1809  11.1315   C.2       1 RES1   0.0000
     9 N9      32.9559  -9.7498  11.1832   N.2       1 RES1   0.0000
    10 C10     33.8460  -9.7620  10.0319   C.3       1 RES1   0.0000
    11 C11     33.5457  -8.5818   9.0883   C.2       1 RES1   0.0000
    12 C12     33.0561  -7.3549   9.5730   C.2       1 RES1   0.0000
    13 C13     32.8477  -6.2608   8.6923   C.2       1 RES1   0.0000
    14 C14     33.1591  -6.3952   7.3283   C.2       1 RES1   0.0000
    15 C15     33.7038  -7.6119   6.8552   C.2       1 RES1   0.0000
    16 Cl16    34.1096  -7.8460   5.1572   Cl        1 RES1   0.0000
    17 C17     33.8820  -8.6971   7.7296   C.2       1 RES1   0.0000
    18 C18     35.3137  -9.6326  10.4441   C.2       1 RES1   0.0000
    19 C19     36.3453 -10.3527   9.8187   C.2       1 RES1   0.0000
    20 C20     37.6673 -10.1387  10.2488   C.2       1 RES1   0.0000
    21 C21     37.9376  -9.2447  11.2985   C.2       1 RES1   0.0000
    22 C22     36.8697  -8.5561  11.8925   C.2       1 RES1   0.0000
    23 N23     35.6072  -8.7705  11.4478   N.2       1 RES1   0.0000
    24 C24     30.8797 -10.0812  12.2822   C.2       1 RES1   0.0000
    25 N25     31.3879  -9.4149  13.3728   N.2       1 RES1   0.0000
    26 C26     30.8961  -9.2558  14.6372   C.2       1 RES1   0.0000
    27 N27     31.6387  -8.5100  15.5038   N.2       1 RES1   0.0000
    28 C28     31.2385  -8.2809  16.7893   C.2       1 RES1   0.0000
    29 C29     30.0138  -8.8156  17.2370   C.2       1 RES1   0.0000
    30 C30     29.2549  -9.5794  16.3223   C.2       1 RES1   0.0000
    31 N31     29.7062  -9.7732  15.0514   N.2       1 RES1   0.0000
    32 C32     29.5643 -10.5880  12.2324   C.2       1 RES1   0.0000
@<TRIPOS>BOND
     1     1     2    1
     2     2     3    2
     3     2     4    2
     4     2     5    1
     5     5     6    2
     6     6     7    1
     7     7     8    2
     8     8     9    1
     9    10     9    1
    10    10    11    1
    11    11    12    2
    12    12    13    1
    13    13    14    2
    14    14    15    1
    15    15    16    1
    16    15    17    2
    17    10    18    1
    18    18    19    2
    19    19    20    1
    20    20    21    2
    21    21    22    1
    22    22    23    2
    23     8    24    1
    24    24    25    1
    25    25    26    1
    26    26    27    2
    27    27    28    1
    28    28    29    2
    29    29    30    1
    30    30    31    2
    31    24    32    2
    32    32     5    1
    33    17    11    1
    34    23    18    1
    35    31    26    1
@<TRIPOS>SUBSTRUCTURE
     1 RES1        1 GROUP             0 ****  ****    0  
@<TRIPOS>MOLECULE
ligand_2
    32    35     1     0     0
SMALL
NO_CHARGES
****
Generated from the CSD

@<TRIPOS>ATOM
     1 C1      41.0621  -8.5132   8.7728   C.3       1 RES1   0.0000
     2 S2      40.6244  -9.2582  10.3580   S.o2      1 RES1   0.0000
     3 O3      41.3390 -10.5182  10.5254   O.2       1 RES1   0.0000
     4 O4      40.6654  -8.2593  11.3975   O.2       1 RES1   0.0000
     5 C5      38.9340  -9.6942  10.1195   C.2       1 RES1   0.0000
     6 C6      37.9460  -8.8274  10.6090   C.2       1 RES1   0.0000
     7 C7      36.6100  -9.1264  10.3709   C.2       1 RES1   0.0000
     8 C8      36.2507 -10.3155   9.7104   C.2       1 RES1   0.0000
     9 N9      34.9532 -10.6526   9.5780   N.2       1 RES1   0.0000
    10 C10     33.8608  -9.7875   9.9979   C.3       1 RES1   0.0000
    11 C11     33.6156  -8.6675   8.9688   C.2       1 RES1   0.0000
    12 C12     33.1363  -7.4021   9.3546   C.2       1 RES1   0.0000
    13 C13     32.9791  -6.3656   8.3969   C.2       1 RES1   0.0000
    14 C14     33.3312  -6.5967   7.0560   C.2       1 RES1   0.0000
    15 C15     33.8653  -7.8522   6.6828   C.2       1 RES1   0.0000
    16 Cl16    34.3204  -8.2068   5.0186   Cl        1 RES1   0.0000
    17 C17     33.9927  -8.8797   7.6327   C.2       1 RES1   0.0000
    18 C18     32.5446 -10.5556  10.1334   C.2       1 RES1   0.0000
    19 C19     31.6264 -10.3137  11.1688   C.2       1 RES1   0.0000
    20 C20     30.4284 -11.0505  11.1871   C.2       1 RES1   0.0000
    21 C21     30.1767 -12.0230  10.2047   C.2       1 RES1   0.0000
    22 C22     31.1301 -12.2289   9.1968   C.2       1 RES1   0.0000
    23 N23     32.2692 -11.4940   9.1951   N.2       1 RES1   0.0000
    24 C24     37.2362 -11.1935   9.2270   C.2       1 RES1   0.0000
    25 N25     36.8312 -12.2945   8.5091   N.2       1 RES1   0.0000
    26 C26     37.5371 -13.3561   8.0188   C.2       1 RES1   0.0000
    27 N27     36.8404 -14.2956   7.3183   N.2       1 RES1   0.0000
    28 C28     37.4467 -15.3936   6.7778   C.2       1 RES1   0.0000
    29 C29     38.8377 -15.5600   6.9314   C.2       1 RES1   0.0000
    30 C30     39.5435 -14.5724   7.6540   C.2       1 RES1   0.0000
    31 N31     38.8832 -13.4978   8.1697   N.2       1 RES1   0.0000
    32 C32     38.5920 -10.8564   9.4224   C.2       1 RES1   0.0000
@<TRIPOS>BOND
     1     1     2    1
     2     2     3    2
     3     2     4    2
     4     2     5    1
     5     5     6    2
     6     6     7    1
     7     7     8    2
     8     8     9    1
     9    10     9    1
    10    10    11    1
    11    11    12    2
    12    12    13    1
    13    13    14    2
    14    14    15    1
    15    15    16    1
    16    15    17    2
    17    10    18    1
    18    18    19    2
    19    19    20    1
    20    20    21    2
    21    21    22    1
    22    22    23    2
    23     8    24    1
    24    24    25    1
    25    25    26    1
    26    26    27    2
    27    27    28    1
    28    28    29    2
    29    29    30    1
    30    30    31    2
    31    24    32    2
    32    32     5    1
    33    17    11    1
    34    23    18    1
    35    31    26    1
@<TRIPOS>SUBSTRUCTURE
     1 RES1        1 GROUP             0 ****  ****    0  
@<TRIPOS>MOLECULE
ligand_3
    32    35     1     0     0
SMALL
NO_CHARGES
****
Generated from the CSD

@<TRIPOS>ATOM
     1 C1      40.9345  -9.8102  12.0487   C.3       1 RES1   0.0000
     2 S2      40.6244  -9.2582  10.3580   S.o2      1 RES1   0.0000
     3 O3      40.6704  -7.8019  10.2978   O.2       1 RES1   0.0000
     4 O4      41.4031 -10.0456   9.4341   O.2       1 RES1   0.0000
     5 C5      38.9340  -9.6942  10.1195   C.2       1 RES1   0.0000
     6 C6      37.9460  -8.8274  10.6090   C.2       1 RES1   0.0000
     7 C7      36.6100  -9.1264  10.3709   C.2       1 RES1   0.0000
     8 C8      36.2507 -10.3155   9.7104   C.2       1 RES1   0.0000
     9 N9      34.9532 -10.6526   9.5780   N.2       1 RES1   0.0000
    10 C10     33.8608  -9.7875   9.9979   C.3       1 RES1   0.0000
    11 C11     33.6156  -8.6675   8.9688   C.2       1 RES1   0.0000
    12 C12     33.1363  -7.4021   9.3546   C.2       1 RES1   0.0000
    13 C13     32.9791  -6.3656   8.3969   C.2       1 RES1   0.0000
    14 C14     33.3312  -6.5967   7.0560   C.2       1 RES1   0.0000
    15 C15     33.8653  -7.8522   6.6828   C.2       1 RES1   0.0000
    16 Cl16    34.3204  -8.2068   5.0186   Cl        1 RES1   0.0000
    17 C17     33.9927  -8.8797   7.6327   C.2       1 RES1   0.0000
    18 C18     32.5446 -10.5556  10.1334   C.2       1 RES1   0.0000
    19 C19     31.6264 -10.3137  11.1688   C.2       1 RES1   0.0000
    20 C20     30.4284 -11.0505  11.1871   C.2       1 RES1   0.0000
    21 C21     30.1767 -12.0230  10.2047   C.2       1 RES1   0.0000
    22 C22     31.1301 -12.2289   9.1968   C.2       1 RES1   0.0000
    23 N23     32.2692 -11.4940   9.1951   N.2       1 RES1   0.0000
    24 C24     37.2362 -11.1935   9.2270   C.2       1 RES1   0.0000
    25 N25     36.8312 -12.2945   8.5091   N.2       1 RES1   0.0000
    26 C26     37.5371 -13.3561   8.0188   C.2       1 RES1   0.0000
    27 N27     36.8404 -14.2956   7.3183   N.2       1 RES1   0.0000
    28 C28     37.4467 -15.3936   6.7778   C.2       1 RES1   0.0000
    29 C29     38.8377 -15.5600   6.9314   C.2       1 RES1   0.0000
    30 C30     39.5435 -14.5724   7.6540   C.2       1 RES1   0.0000
    31 N31     38.8832 -13.4978   8.1697   N.2       1 RES1   0.0000
    32 C32     38.5920 -10.8564   9.4224   C.2       1 RES1   0.0000
@<TRIPOS>BOND
     1     1     2    1
     2     2     3    2
     3     2     4    2
     4     2     5    1
     5     5     6    2
     6     6     7    1
     7     7     8    2
     8     8     9    1
     9    10     9    1
    10    10    11    1
    11    11    12    2
    12    12    13    1
    13    13    14    2
    14    14    15    1
    15    15    16    1
    16    15    17    2
    17    10    18    1
    18    18    19    2
    19    19    20    1
    20    20    21    2
    21    21    22    1
    22    22    23    2
    23     8    24    1
    24    24    25    1
    25    25    26    1
    26    26    27    2
    27    27    28    1
    28    28    29    2
    29    29    30    1
    30    30    31    2
    31    24    32    2
    32    32     5    1
    33    17    11    1
    34    23    18    1
    35    31    26    1
@<TRIPOS>SUBSTRUCTURE
     1 RES1        1 GROUP             0 ****  ****    0  
@<TRIPOS>MOLECULE
ligand_4
    32    35     1     0     0
SMALL
NO_CHARGES
****
Generated from the CSD

@<TRIPOS>ATOM
     1 C1      30.0481 -14.9899  13.7581   C.3       1 RES1   0.0000
     2 S2      31.6231 -14.4593  14.4634   S.o2      1 RES1   0.0000
     3 O3      31.4161 -13.9700  15.8214   O.2       1 RES1   0.0000
     4 O4      32.6380 -15.4489  14.1976   O.2       1 RES1   0.0000
     5 C5      32.0134 -13.0388  13.4968   C.2       1 RES1   0.0000
     6 C6      32.9020 -13.1870  12.4218   C.2       1 RES1   0.0000
     7 C7      33.1678 -12.0895  11.6120   C.2       1 RES1   0.0000
     8 C8      32.6098 -10.8321  11.9067   C.2       1 RES1   0.0000
     9 N9      32.9559  -9.7498  11.1832   N.2       1 RES1   0.0000
    10 C10     33.7841  -9.8243   9.9888   C.3       1 RES1   0.0000
    11 C11     33.5149  -8.6297   9.0539   C.2       1 RES1   0.0000
    12 C12     33.2039  -7.3532   9.5576   C.2       1 RES1   0.0000
    13 C13     33.0230  -6.2532   8.6782   C.2       1 RES1   0.0000
    14 C14     33.1827  -6.4345   7.2936   C.2       1 RES1   0.0000
    15 C15     33.5504  -7.7065   6.7958   C.2       1 RES1   0.0000
    16 Cl16    33.7605  -8.0005   5.0719   Cl        1 RES1   0.0000
    17 C17     33.7017  -8.7946   7.6718   C.2       1 RES1   0.0000
    18 C18     35.2761  -9.7907  10.3261   C.2       1 RES1   0.0000
    19 C19     36.2252 -10.5792   9.6545   C.2       1 RES1   0.0000
    20 C20     37.5784 -10.4515  10.0164   C.2       1 RES1   0.0000
    21 C21     37.9595  -9.5740  11.0455   C.2       1 RES1   0.0000
    22 C22     36.9705  -8.8147  11.6878   C.2       1 RES1   0.0000
    23 N23     35.6758  -8.9467  11.3083   N.2       1 RES1   0.0000
    24 C24     31.7270 -10.6751  12.9892   C.2       1 RES1   0.0000
    25 N25     31.1396  -9.4457  13.1766   N.2       1 RES1   0.0000
    26 C26     30.3468  -8.9735  14.1838   C.2       1 RES1   0.0000
    27 N27     29.8964  -7.6916  14.0713   N.2       1 RES1   0.0000
    28 C28     29.0922  -7.1207  15.0161   C.2       1 RES1   0.0000
    29 C29     28.6989  -7.8785  16.1373   C.2       1 RES1   0.0000
    30 C30     29.1696  -9.2071  16.2326   C.2       1 RES1   0.0000
    31 N31     29.9696  -9.7221  15.2572   N.2       1 RES1   0.0000
    32 C32     31.4169 -11.8055  13.7740   C.2       1 RES1   0.0000
@<TRIPOS>BOND
     1     1     2    1
     2     2     3    2
     3     2     4    2
     4     2     5    1
     5     5     6    2
     6     6     7    1
     7     7     8    2
     8     8     9    1
     9    10     9    1
    10    10    11    1
    11    11    12    2
    12    12    13    1
    13    13    14    2
    14    14    15    1
    15    15    16    1
    16    15    17    2
    17    10    18    1
    18    18    19    2
    19    19    20    1
    20    20    21    2
    21    21    22    1
    22    22    23    2
    23     8    24    1
    24    24    25    1
    25    25    26    1
    26    26    27    2
    27    27    28    1
    28    28    29    2
    29    29    30    1
    30    30    31    2
    31    24    32    2
    32    32     5    1
    33    17    11    1
    34    23    18    1
    35    31    26    1
@<TRIPOS>SUBSTRUCTURE
     1 RES1        1 GROUP             0 ****  ****    0  
@<TRIPOS>MOLECULE
ligand_5
    32    35     1     0     0
SMALL
NO_CHARGES
****
Generated from the CSD

@<TRIPOS>ATOM
     1 C1      33.0253 -14.5571  15.5963   C.3       1 RES1   0.0000
     2 S2      31.6231 -14.4593  14.4634   S.o2      1 RES1   0.0000
     3 O3      31.6545 -15.5877  13.5404   O.2       1 RES1   0.0000
     4 O4      30.4189 -14.1585  15.1979   O.2       1 RES1   0.0000
     5 C5      32.0134 -13.0388  13.4968   C.2       1 RES1   0.0000
     6 C6      32.9020 -13.1870  12.4218   C.2       1 RES1   0.0000
     7 C7      33.1678 -12.0895  11.6120   C.2       1 RES1   0.0000
     8 C8      32.6098 -10.8321  11.9067   C.2       1 RES1   0.0000
     9 N9      32.9559  -9.7498  11.1832   N.2       1 RES1   0.0000
    10 C10     33.7841  -9.8243   9.9888   C.3       1 RES1   0.0000
    11 C11     33.5149  -8.6297   9.0539   C.2       1 RES1   0.0000
    12 C12     33.2039  -7.3532   9.5576   C.2       1 RES1   0.0000
    13 C13     33.0230  -6.2532   8.6782   C.2       1 RES1   0.0000
    14 C14     33.1827  -6.4345   7.2936   C.2       1 RES1   0.0000
    15 C15     33.5504  -7.7065   6.7958   C.2       1 RES1   0.0000
    16 Cl16    33.7605  -8.0005   5.0719   Cl        1 RES1   0.0000
    17 C17     33.7017  -8.7946   7.6718   C.2       1 RES1   0.0000
    18 C18     35.2761  -9.7907  10.3261   C.2       1 RES1   0.0000
    19 C19     36.2252 -10.5792   9.6545   C.2       1 RES1   0.0000
    20 C20     37.5784 -10.4515  10.0164   C.2       1 RES1   0.0000
    21 C21     37.9595  -9.5740  11.0455   C.2       1 RES1   0.0000
    22 C22     36.9705  -8.8147  11.6878   C.2       1 RES1   0.0000
    23 N23     35.6758  -8.9467  11.3083   N.2       1 RES1   0.0000
    24 C24     31.7270 -10.6751  12.9892   C.2       1 RES1   0.0000
    25 N25     31.1396  -9.4457  13.1766   N.2       1 RES1   0.0000
    26 C26     30.3468  -8.9735  14.1838   C.2       1 RES1   0.0000
    27 N27     29.8964  -7.6916  14.0713   N.2       1 RES1   0.0000
    28 C28     29.0922  -7.1207  15.0161   C.2       1 RES1   0.0000
    29 C29     28.6989  -7.8785  16.1373   C.2       1 RES1   0.0000
    30 C30     29.1696  -9.2071  16.2326   C.2       1 RES1   0.0000
    31 N31     29.9696  -9.7221  15.2572   N.2       1 RES1   0.0000
    32 C32     31.4169 -11.8055  13.7740   C.2       1 RES1   0.0000
@<TRIPOS>BOND
     1     1     2    1
     2     2     3    2
     3     2     4    2
     4     2     5    1
     5     5     6    2
     6     6     7    1
     7     7     8    2
     8     8     9    1
     9    10     9    1
    10    10    11    1
    11    11    12    2
    12    12    13    1
    13    13    14    2
    14    14    15    1
    15    15    16    1
    16    15    17    2
    17    10    18    1
    18    18    19    2
    19    19    20    1
    20    20    21    2
    21    21    22    1
    22    22    23    2
    23     8    24    1
    24    24    25    1
    25    25    26    1
    26    26    27    2
    27    27    28    1
    28    28    29    2
    29    29    30    1
    30    30    31    2
    31    24    32    2
    32    32     5    1
    33    17    11    1
    34    23    18    1
    35    31    26    1
@<TRIPOS>SUBSTRUCTURE
     1 RES1        1 GROUP             0 ****  ****    0  
@<TRIPOS>MOLECULE
ligand_6
    32    35     1     0     0
SMALL
NO_CHARGES
****
Generated from the CSD

@<TRIPOS>ATOM
     1 C1      39.6505 -12.9571  13.4727   C.3       1 RES1   0.0000
     2 S2      38.1940 -13.9876  13.1960   S.o2      1 RES1   0.0000
     3 O3      38.5668 -15.1758  12.4374   O.2       1 RES1   0.0000
     4 O4      37.4446 -14.1170  14.4214   O.2       1 RES1   0.0000
     5 C5      37.2327 -13.0003  12.0980   C.2       1 RES1   0.0000
     6 C6      36.1951 -12.2238  12.6342   C.2       1 RES1   0.0000
     7 C7      35.4714 -11.3913  11.7890   C.2       1 RES1   0.0000
     8 C8      35.7284 -11.3794  10.4058   C.2       1 RES1   0.0000
     9 N9      34.9532 -10.6526   9.5780   N.2       1 RES1   0.0000
    10 C10     33.9257  -9.7370  10.0513   C.3       1 RES1   0.0000
    11 C11     33.6495  -8.6319   9.0140   C.2       1 RES1   0.0000
    12 C12     33.3882  -7.3045   9.4010   C.2       1 RES1   0.0000
    13 C13     33.2002  -6.2905   8.4250   C.2       1 RES1   0.0000
    14 C14     33.3030  -6.6095   7.0601   C.2       1 RES1   0.0000
    15 C15     33.6212  -7.9333   6.6765   C.2       1 RES1   0.0000
    16 Cl16    33.7587  -8.3988   4.9834   Cl        1 RES1   0.0000
    17 C17     33.7799  -8.9351   7.6490   C.2       1 RES1   0.0000
    18 C18     32.5951 -10.4508  10.2976   C.2       1 RES1   0.0000
    19 C19     31.7619 -10.1507  11.3883   C.2       1 RES1   0.0000
    20 C20     30.5420 -10.8404  11.5087   C.2       1 RES1   0.0000
    21 C21     30.1860 -11.8244  10.5710   C.2       1 RES1   0.0000
    22 C22     31.0575 -12.0893   9.5044   C.2       1 RES1   0.0000
    23 N23     32.2198 -11.3988   9.4047   N.2       1 RES1   0.0000
    24 C24     36.7600 -12.1636   9.8612   C.2       1 RES1   0.0000
    25 N25     37.0275 -12.0445   8.5174   N.2       1 RES1   0.0000
    26 C26     37.8742 -12.7437   7.7050   C.2       1 RES1   0.0000
    27 N27     37.9312 -12.3679   6.3957   N.2       1 RES1   0.0000
    28 C28     38.7483 -12.9929   5.4974   C.2       1 RES1   0.0000
    29 C29     39.5724 -14.0500   5.9327   C.2       1 RES1   0.0000
    30 C30     39.5049 -14.4201   7.2944   C.2       1 RES1   0.0000
    31 N31     38.6700 -13.7582   8.1438   N.2       1 RES1   0.0000
    32 C32     37.5281 -12.9643  10.7323   C.2       1 RES1   0.0000
@<TRIPOS>BOND
     1     1     2    1
     2     2     3    2
     3     2     4    2
     4     2     5    1
     5     5     6    2
     6     6     7    1
     7     7     8    2
     8     8     9    1
     9    10     9    1
    10    10    11    1
    11    11    12    2
    12    12    13    1
    13    13    14    2
    14    14    15    1
    15    15    16    1
    16    15    17    2
    17    10    18    1
    18    18    19    2
    19    19    20    1
    20    20    21    2
    21    21    22    1
    22    22    23    2
    23     8    24    1
    24    24    25    1
    25    25    26    1
    26    26    27    2
    27    27    28    1
    28    28    29    2
    29    29    30    1
    30    30    31    2
    31    24    32    2
    32    32     5    1
    33    17    11    1
    34    23    18    1
    35    31    26    1
@<TRIPOS>SUBSTRUCTURE
     1 RES1        1 GROUP             0 ****  ****    0  
@<TRIPOS>MOLECULE
ligand_7
    32    35     1     0     0
SMALL
NO_CHARGES
****
Generated from the CSD

@<TRIPOS>ATOM
     1 C1      37.1630 -15.4547  13.4051   C.3       1 RES1   0.0000
     2 S2      38.1940 -13.9876  13.1960   S.o2      1 RES1   0.0000
     3 O3      38.2538 -13.2435  14.4487   O.2       1 RES1   0.0000
     4 O4      39.4097 -14.3369  12.5031   O.2       1 RES1   0.0000
     5 C5      37.2327 -13.0003  12.0980   C.2       1 RES1   0.0000
     6 C6      36.1951 -12.2238  12.6342   C.2       1 RES1   0.0000
     7 C7      35.4714 -11.3913  11.7890   C.2       1 RES1   0.0000
     8 C8      35.7284 -11.3794  10.4058   C.2       1 RES1   0.0000
     9 N9      34.9532 -10.6526   9.5780   N.2       1 RES1   0.0000
    10 C10     33.9257  -9.7370  10.0513   C.3       1 RES1   0.0000
    11 C11     33.6495  -8.6319   9.0140   C.2       1 RES1   0.0000
    12 C12     33.3882  -7.3045   9.4010   C.2       1 RES1   0.0000
    13 C13     33.2002  -6.2905   8.4250   C.2       1 RES1   0.0000
    14 C14     33.3030  -6.6095   7.0601   C.2       1 RES1   0.0000
    15 C15     33.6212  -7.9333   6.6765   C.2       1 RES1   0.0000
    16 Cl16    33.7587  -8.3988   4.9834   Cl        1 RES1   0.0000
    17 C17     33.7799  -8.9351   7.6490   C.2       1 RES1   0.0000
    18 C18     32.5951 -10.4508  10.2976   C.2       1 RES1   0.0000
    19 C19     31.7619 -10.1507  11.3883   C.2       1 RES1   0.0000
    20 C20     30.5420 -10.8404  11.5087   C.2       1 RES1   0.0000
    21 C21     30.1860 -11.8244  10.5710   C.2       1 RES1   0.0000
    22 C22     31.0575 -12.0893   9.5044   C.2       1 RES1   0.0000
    23 N23     32.2198 -11.3988   9.4047   N.2       1 RES1   0.0000
    24 C24     36.7600 -12.1636   9.8612   C.2       1 RES1   0.0000
    25 N25     37.0275 -12.0445   8.5174   N.2       1 RES1   0.0000
    26 C26     37.8742 -12.7437   7.7050   C.2       1 RES1   0.0000
    27 N27     37.9312 -12.3679   6.3957   N.2       1 RES1   0.0000
    28 C28     38.7483 -12.9929   5.4974   C.2       1 RES1   0.0000
    29 C29     39.5724 -14.0500   5.9327   C.2       1 RES1   0.0000
    30 C30     39.5049 -14.4201   7.2944   C.2       1 RES1   0.0000
    31 N31     38.6700 -13.7582   8.1438   N.2       1 RES1   0.0000
    32 C32     37.5281 -12.9643  10.7323   C.2       1 RES1   0.0000
@<TRIPOS>BOND
     1     1     2    1
     2     2     3    2
     3     2     4    2
     4     2     5    1
     5     5     6    2
     6     6     7    1
     7     7     8    2
     8     8     9    1
     9    10     9    1
    10    10    11    1
    11    11    12    2
    12    12    13    1
    13    13    14    2
    14    14    15    1
    15    15    16    1
    16    15    17    2
    17    10    18    1
    18    18    19    2
    19    19    20    1
    20    20    21    2
    21    21    22    1
    22    22    23    2
    23     8    24    1
    24    24    25    1
    25    25    26    1
    26    26    27    2
    27    27    28    1
    28    28    29    2
    29    29    30    1
    30    30    31    2
    31    24    32    2
    32    32     5    1
    33    17    11    1
    34    23    18    1
    35    31    26    1
@<TRIPOS>SUBSTRUCTURE
     1 RES1        1 GROUP             0 ****  ****    0  
@<TRIPOS>MOLECULE
ligand_8
    32    35     1     0     0
SMALL
NO_CHARGES
****
Generated from the CSD

@<TRIPOS>ATOM
     1 C1      39.3707  -6.3890  13.6642   C.3       1 RES1   0.0000
     2 S2      38.6260  -7.8272  14.4620   S.o2      1 RES1   0.0000
     3 O3      39.6542  -8.8209  14.7476   O.2       1 RES1   0.0000
     4 O4      37.7246  -7.3988  15.5032   O.2       1 RES1   0.0000
     5 C5      37.6432  -8.5125  13.1702   C.2       1 RES1   0.0000
     6 C6      36.2738  -8.2104  13.1419   C.2       1 RES1   0.0000
     7 C7      35.5000  -8.6909  12.0925   C.2       1 RES1   0.0000
     8 C8      36.0658  -9.5255  11.1113   C.2       1 RES1   0.0000
     9 N9      35.2887 -10.0755  10.1582   N.2       1 RES1   0.0000
    10 C10     33.8551  -9.8414  10.0692   C.3       1 RES1   0.0000
    11 C11     33.5489  -8.6133   9.1908   C.2       1 RES1   0.0000
    12 C12     33.0184  -7.4294   9.7356   C.2       1 RES1   0.0000
    13 C13     32.8046  -6.2890   8.9171   C.2       1 RES1   0.0000
    14 C14     33.1515  -6.3336   7.5558   C.2       1 RES1   0.0000
    15 C15     33.7365  -7.5067   7.0244   C.2       1 RES1   0.0000
    16 Cl16    34.1881  -7.6285   5.3263   Cl        1 RES1   0.0000
    17 C17     33.9200  -8.6386   7.8365   C.2       1 RES1   0.0000
    18 C18     33.1216 -11.0266   9.4383   C.2       1 RES1   0.0000
    19 C19     31.8652 -11.4685   9.8857   C.2       1 RES1   0.0000
    20 C20     31.2580 -12.5471   9.2176   C.2       1 RES1   0.0000
    21 C21     31.9122 -13.1795   8.1469   C.2       1 RES1   0.0000
    22 C22     33.1683 -12.7021   7.7447   C.2       1 RES1   0.0000
    23 N23     33.7233 -11.6513   8.3969   N.2       1 RES1   0.0000
    24 C24     37.4353  -9.8405  11.1405   C.2       1 RES1   0.0000
    25 N25     37.9538 -10.5848  10.1067   N.2       1 RES1   0.0000
    26 C26     39.1985 -11.1150   9.9180   C.2       1 RES1   0.0000
    27 N27     39.4129 -11.8013   8.7597   N.2       1 RES1   0.0000
    28 C28     40.6209 -12.3663   8.4653   C.2       1 RES1   0.0000
    29 C29     41.6884 -12.2270   9.3748   C.2       1 RES1   0.0000
    30 C30     41.4491 -11.5061  10.5660   C.2       1 RES1   0.0000
    31 N31     40.2218 -10.9642  10.8041   N.2       1 RES1   0.0000
    32 C32     38.2273  -9.3036  12.1770   C.2       1 RES1   0.0000
@<TRIPOS>BOND
     1     1     2    1
     2     2     3    2
     3     2     4    2
     4     2     5    1
     5     5     6    2
     6     6     7    1
     7     7     8    2
     8     8     9    1
     9    10     9    1
    10    10    11    1
    11    11    12    2
    12    12    13    1
    13    13    14    2
    14    14    15    1
    15    15    16    1
    16    15    17    2
    17    10    18    1
    18    18    19    2
    19    19    20    1
    20    20    21    2
    21    21    22    1
    22    22    23    2
    23     8    24    1
    24    24    25    1
    25    25    26    1
    26    26    27    2
    27    27    28    1
    28    28    29    2
    29    29    30    1
    30    30    31    2
    31    24    32    2
    32    32     5    1
    33    17    11    1
    34    23    18    1
    35    31    26    1
@<TRIPOS>SUBSTRUCTURE
     1 RES1        1 GROUP             0 ****  ****    0  
@<TRIPOS>MOLECULE
ligand_9
    32    35     1     0     0
SMALL
NO_CHARGES
****
Generated from the CSD

@<TRIPOS>ATOM
     1 C1      38.3161  -8.9621  15.8314   C.3       1 RES1   0.0000
     2 S2      38.6260  -7.8272  14.4620   S.o2      1 RES1   0.0000
     3 O3      38.0400  -6.5250  14.7578   O.2       1 RES1   0.0000
     4 O4      40.0040  -7.9232  14.0473   O.2       1 RES1   0.0000
     5 C5      37.6432  -8.5125  13.1702   C.2       1 RES1   0.0000
     6 C6      36.2738  -8.2104  13.1419   C.2       1 RES1   0.0000
     7 C7      35.5000  -8.6909  12.0925   C.2       1 RES1   0.0000
     8 C8      36.0658  -9.5255  11.1113   C.2       1 RES1   0.0000
     9 N9      35.2887 -10.0755  10.1582   N.2       1 RES1   0.0000
    10 C10     33.8551  -9.8414  10.0692   C.3       1 RES1   0.0000
    11 C11     33.5489  -8.6133   9.1908   C.2       1 RES1   0.0000
    12 C12     33.0184  -7.4294   9.7356   C.2       1 RES1   0.0000
    13 C13     32.8046  -6.2890   8.9171   C.2       1 RES1   0.0000
    14 C14     33.1515  -6.3336   7.5558   C.2       1 RES1   0.0000
    15 C15     33.7365  -7.5067   7.0244   C.2       1 RES1   0.0000
    16 Cl16    34.1881  -7.6285   5.3263   Cl        1 RES1   0.0000
    17 C17     33.9200  -8.6386   7.8365   C.2       1 RES1   0.0000
    18 C18     33.1216 -11.0266   9.4383   C.2       1 RES1   0.0000
    19 C19     31.8652 -11.4685   9.8857   C.2       1 RES1   0.0000
    20 C20     31.2580 -12.5471   9.2176   C.2       1 RES1   0.0000
    21 C21     31.9122 -13.1795   8.1469   C.2       1 RES1   0.0000
    22 C22     33.1683 -12.7021   7.7447   C.2       1 RES1   0.0000
    23 N23     33.7233 -11.6513   8.3969   N.2       1 RES1   0.0000
    24 C24     37.4353  -9.8405  11.1405   C.2       1 RES1   0.0000
    25 N25     37.9538 -10.5848  10.1067   N.2       1 RES1   0.0000
    26 C26     39.1985 -11.1150   9.9180   C.2       1 RES1   0.0000
    27 N27     39.4129 -11.8013   8.7597   N.2       1 RES1   0.0000
    28 C28     40.6209 -12.3663   8.4653   C.2       1 RES1   0.0000
    29 C29     41.6884 -12.2270   9.3748   C.2       1 RES1   0.0000
    30 C30     41.4491 -11.5061  10.5660   C.2       1 RES1   0.0000
    31 N31     40.2218 -10.9642  10.8041   N.2       1 RES1   0.0000
    32 C32     38.2273  -9.3036  12.1770   C.2       1 RES1   0.0000
@<TRIPOS>BOND
     1     1     2    1
     2     2     3    2
     3     2     4    2
     4     2     5    1
     5     5     6    2
     6     6     7    1
     7     7     8    2
     8     8     9    1
     9    10     9    1
    10    10    11    1
    11    11    12    2
    12    12    13    1
    13    13    14    2
    14    14    15    1
    15    15    16    1
    16    15    17    2
    17    10    18    1
    18    18    19    2
    19    19    20    1
    20    20    21    2
    21    21    22    1
    22    22    23    2
    23     8    24    1
    24    24    25    1
    25    25    26    1
    26    26    27    2
    27    27    28    1
    28    28    29    2
    29    29    30    1
    30    30    31    2
    31    24    32    2
    32    32     5    1
    33    17    11    1
    34    23    18    1
    35    31    26    1
@<TRIPOS>SUBSTRUCTURE
     1 RES1        1 GROUP             0 ****  ****    0  
@<TRIPOS>MOLECULE
ligand_10
    32    35     1     0     0
SMALL
NO_CHARGES
****
Generated from the CSD

@<TRIPOS>ATOM
     1 C1      26.4814 -10.3476  10.6665   C.3       1 RES1   0.0000
     2 S2      27.4488 -11.8358  10.9963   S.o2      1 RES1   0.0000
     3 O3      27.1507 -12.3319  12.3347   O.2       1 RES1   0.0000
     4 O4      27.3819 -12.7256   9.8632   O.2       1 RES1   0.0000
     5 C5      29.0943 -11.2107  11.0726   C.2       1 RES1   0.0000
     6 C6      29.9019 -11.3169   9.9308   C.2       1 RES1   0.0000
     7 C7      31.1791 -10.7699   9.9564   C.2       1 RES1   0.0000
     8 C8      31.6807 -10.1809  11.1315   C.2       1 RES1   0.0000
     9 N9      32.9559  -9.7498  11.1832   N.2       1 RES1   0.0000
    10 C10     33.8517  -9.7795  10.0367   C.3       1 RES1   0.0000
    11 C11     33.5944  -8.5815   9.1028   C.2       1 RES1   0.0000
    12 C12     33.1506  -7.3414   9.5977   C.2       1 RES1   0.0000
    13 C13     32.9820  -6.2334   8.7259   C.2       1 RES1   0.0000
    14 C14     33.2873  -6.3683   7.3606   C.2       1 RES1   0.0000
    15 C15     33.7865  -7.6004   6.8772   C.2       1 RES1   0.0000
    16 Cl16    34.1822  -7.8358   5.1771   Cl        1 RES1   0.0000
    17 C17     33.9252  -8.6984   7.7429   C.2       1 RES1   0.0000
    18 C18     35.3204  -9.7007  10.4580   C.2       1 RES1   0.0000
    19 C19     35.7354  -9.8224  11.7947   C.2       1 RES1   0.0000
    20 C20     37.1126  -9.7689  12.0758   C.2       1 RES1   0.0000
    21 C21     38.0423  -9.5704  11.0411   C.2       1 RES1   0.0000
    22 C22     37.5736  -9.4487   9.7247   C.2       1 RES1   0.0000
    23 N23     36.2420  -9.5191   9.4809   N.2       1 RES1   0.0000
    24 C24     30.8797 -10.0812  12.2822   C.2       1 RES1   0.0000
    25 N25     31.3879  -9.4149  13.3728   N.2       1 RES1   0.0000
    26 C26     30.8954  -9.2546  14.6368   C.2       1 RES1   0.0000
    27 N27     31.6384  -8.5094  15.5036   N.2       1 RES1   0.0000
    28 C28     31.2375  -8.2791  16.7887   C.2       1 RES1   0.0000
    29 C29     30.0118  -8.8119  17.2357   C.2       1 RES1   0.0000
    30 C30     29.2524  -9.5750  16.3208   C.2       1 RES1   0.0000
    31 N31     29.7045  -9.7701  15.0503   N.2       1 RES1   0.0000
    32 C32     29.5643 -10.5880  12.2324   C.2       1 RES1   0.0000
@<TRIPOS>BOND
     1     1     2    1
     2     2     3    2
     3     2     4    2
     4     2     5    1
     5     5     6    2
     6     6     7    1
     7     7     8    2
     8     8     9    1
     9    10     9    1
    10    10    11    1
    11    11    12    2
    12    12    13    1
    13    13    14    2
    14    14    15    1
    15    15    16    1
    16    15    17    2
    17    10    18    1
    18    18    19    2
    19    19    20    1
    20    20    21    2
    21    21    22    1
    22    22    23    2
    23     8    24    1
    24    24    25    1
    25    25    26    1
    26    26    27    2
    27    27    28    1
    28    28    29    2
    29    29    30    1
    30    30    31    2
    31    24    32    2
    32    32     5    1
    33    17    11    1
    34    23    18    1
    35    31    26    1
@<TRIPOS>SUBSTRUCTURE
     1 RES1        1 GROUP             0 ****  ****    0  
@<TRIPOS>MOLECULE
ligand_11
    32    35     1     0     0
SMALL
NO_CHARGES
****
Generated from the CSD

@<TRIPOS>ATOM
     1 C1      27.6881 -13.6006  11.2923   C.3       1 RES1   0.0000
     2 S2      27.4488 -11.8358  10.9963   S.o2      1 RES1   0.0000
     3 O3      27.0064 -11.6210   9.6235   O.2       1 RES1   0.0000
     4 O4      26.7176 -11.2492  12.0924   O.2       1 RES1   0.0000
     5 C5      29.0943 -11.2107  11.0726   C.2       1 RES1   0.0000
     6 C6      29.9019 -11.3169   9.9308   C.2       1 RES1   0.0000
     7 C7      31.1791 -10.7699   9.9564   C.2       1 RES1   0.0000
     8 C8      31.6807 -10.1809  11.1315   C.2       1 RES1   0.0000
     9 N9      32.9559  -9.7498  11.1832   N.2       1 RES1   0.0000
    10 C10     33.8517  -9.7795  10.0367   C.3       1 RES1   0.0000
    11 C11     33.5944  -8.5815   9.1028   C.2       1 RES1   0.0000
    12 C12     33.1506  -7.3414   9.5977   C.2       1 RES1   0.0000
    13 C13     32.9820  -6.2334   8.7259   C.2       1 RES1   0.0000
    14 C14     33.2873  -6.3683   7.3606   C.2       1 RES1   0.0000
    15 C15     33.7865  -7.6004   6.8772   C.2       1 RES1   0.0000
    16 Cl16    34.1822  -7.8358   5.1771   Cl        1 RES1   0.0000
    17 C17     33.9252  -8.6984   7.7429   C.2       1 RES1   0.0000
    18 C18     35.3204  -9.7007  10.4580   C.2       1 RES1   0.0000
    19 C19     35.7354  -9.8224  11.7947   C.2       1 RES1   0.0000
    20 C20     37.1126  -9.7689  12.0758   C.2       1 RES1   0.0000
    21 C21     38.0423  -9.5704  11.0411   C.2       1 RES1   0.0000
    22 C22     37.5736  -9.4487   9.7247   C.2       1 RES1   0.0000
    23 N23     36.2420  -9.5191   9.4809   N.2       1 RES1   0.0000
    24 C24     30.8797 -10.0812  12.2822   C.2       1 RES1   0.0000
    25 N25     31.3879  -9.4149  13.3728   N.2       1 RES1   0.0000
    26 C26     30.8954  -9.2546  14.6368   C.2       1 RES1   0.0000
    27 N27     31.6384  -8.5094  15.5036   N.2       1 RES1   0.0000
    28 C28     31.2375  -8.2791  16.7887   C.2       1 RES1   0.0000
    29 C29     30.0118  -8.8119  17.2357   C.2       1 RES1   0.0000
    30 C30     29.2524  -9.5750  16.3208   C.2       1 RES1   0.0000
    31 N31     29.7045  -9.7701  15.0503   N.2       1 RES1   0.0000
    32 C32     29.5643 -10.5880  12.2324   C.2       1 RES1   0.0000
@<TRIPOS>BOND
     1     1     2    1
     2     2     3    2
     3     2     4    2
     4     2     5    1
     5     5     6    2
     6     6     7    1
     7     7     8    2
     8     8     9    1
     9    10     9    1
    10    10    11    1
    11    11    12    2
    12    12    13    1
    13    13    14    2
    14    14    15    1
    15    15    16    1
    16    15    17    2
    17    10    18    1
    18    18    19    2
    19    19    20    1
    20    20    21    2
    21    21    22    1
    22    22    23    2
    23     8    24    1
    24    24    25    1
    25    25    26    1
    26    26    27    2
    27    27    28    1
    28    28    29    2
    29    29    30    1
    30    30    31    2
    31    24    32    2
    32    32     5    1
    33    17    11    1
    34    23    18    1
    35    31    26    1
@<TRIPOS>SUBSTRUCTURE
     1 RES1        1 GROUP             0 ****  ****    0  
@<TRIPOS>MOLECULE
ligand_12
    32    35     1     0     0
SMALL
NO_CHARGES
****
Generated from the CSD

@<TRIPOS>ATOM
     1 C1      41.0621  -8.5132   8.7728   C.3       1 RES1   0.0000
     2 S2      40.6244  -9.2582  10.3580   S.o2      1 RES1   0.0000
     3 O3      41.3390 -10.5182  10.5254   O.2       1 RES1   0.0000
     4 O4      40.6654  -8.2593  11.3975   O.2       1 RES1   0.0000
     5 C5      38.9340  -9.6942  10.1195   C.2       1 RES1   0.0000
     6 C6      37.9460  -8.8274  10.6090   C.2       1 RES1   0.0000
     7 C7      36.6100  -9.1264  10.3709   C.2       1 RES1   0.0000
     8 C8      36.2507 -10.3155   9.7104   C.2       1 RES1   0.0000
     9 N9      34.9532 -10.6526   9.5780   N.2       1 RES1   0.0000
    10 C10     33.8611  -9.7955  10.0148   C.3       1 RES1   0.0000
    11 C11     33.5744  -8.6933   8.9773   C.2       1 RES1   0.0000
    12 C12     33.0891  -7.4287   9.3583   C.2       1 RES1   0.0000
    13 C13     32.8934  -6.4078   8.3910   C.2       1 RES1   0.0000
    14 C14     33.2129  -6.6533   7.0445   C.2       1 RES1   0.0000
    15 C15     33.7533  -7.9070   6.6746   C.2       1 RES1   0.0000
    16 Cl16    34.1689  -8.2793   5.0039   Cl        1 RES1   0.0000
    17 C17     33.9189  -8.9194   7.6347   C.2       1 RES1   0.0000
    18 C18     32.5590 -10.5781  10.1957   C.2       1 RES1   0.0000
    19 C19     32.5061 -11.9818  10.1722   C.2       1 RES1   0.0000
    20 C20     31.2645 -12.6087  10.3814   C.2       1 RES1   0.0000
    21 C21     30.1049 -11.8407  10.5807   C.2       1 RES1   0.0000
    22 C22     30.2127 -10.4423  10.5886   C.2       1 RES1   0.0000
    23 N23     31.4245  -9.8650  10.3994   N.2       1 RES1   0.0000
    24 C24     37.2362 -11.1935   9.2270   C.2       1 RES1   0.0000
    25 N25     36.8312 -12.2945   8.5091   N.2       1 RES1   0.0000
    26 C26     37.5372 -13.3556   8.0178   C.2       1 RES1   0.0000
    27 N27     36.8403 -14.2960   7.3188   N.2       1 RES1   0.0000
    28 C28     37.4467 -15.3935   6.7775   C.2       1 RES1   0.0000
    29 C29     38.8381 -15.5585   6.9288   C.2       1 RES1   0.0000
    30 C30     39.5442 -14.5700   7.6499   C.2       1 RES1   0.0000
    31 N31     38.8838 -13.4959   8.1664   N.2       1 RES1   0.0000
    32 C32     38.5920 -10.8564   9.4224   C.2       1 RES1   0.0000
@<TRIPOS>BOND
     1     1     2    1
     2     2     3    2
     3     2     4    2
     4     2     5    1
     5     5     6    2
     6     6     7    1
     7     7     8    2
     8     8     9    1
     9    10     9    1
    10    10    11    1
    11    11    12    2
    12    12    13    1
    13    13    14    2
    14    14    15    1
    15    15    16    1
    16    15    17    2
    17    10    18    1
    18    18    19    2
    19    19    20    1
    20    20    21    2
    21    21    22    1
    22    22    23    2
    23     8    24    1
    24    24    25    1
    25    25    26    1
    26    26    27    2
    27    27    28    1
    28    28    29    2
    29    29    30    1
    30    30    31    2
    31    24    32    2
    32    32     5    1
    33    17    11    1
    34    23    18    1
    35    31    26    1
@<TRIPOS>SUBSTRUCTURE
     1 RES1        1 GROUP             0 ****  ****    0  
@<TRIPOS>MOLECULE
ligand_13
    32    35     1     0     0
SMALL
NO_CHARGES
****
Generated from the CSD

@<TRIPOS>ATOM
     1 C1      40.9345  -9.8102  12.0487   C.3       1 RES1   0.0000
     2 S2      40.6244  -9.2582  10.3580   S.o2      1 RES1   0.0000
     3 O3      40.6704  -7.8019  10.2978   O.2       1 RES1   0.0000
     4 O4      41.4031 -10.0456   9.4341   O.2       1 RES1   0.0000
     5 C5      38.9340  -9.6942  10.1195   C.2       1 RES1   0.0000
     6 C6      37.9460  -8.8274  10.6090   C.2       1 RES1   0.0000
     7 C7      36.6100  -9.1264  10.3709   C.2       1 RES1   0.0000
     8 C8      36.2507 -10.3155   9.7104   C.2       1 RES1   0.0000
     9 N9      34.9532 -10.6526   9.5780   N.2       1 RES1   0.0000
    10 C10     33.8611  -9.7955  10.0148   C.3       1 RES1   0.0000
    11 C11     33.5744  -8.6933   8.9773   C.2       1 RES1   0.0000
    12 C12     33.0891  -7.4287   9.3583   C.2       1 RES1   0.0000
    13 C13     32.8934  -6.4078   8.3910   C.2       1 RES1   0.0000
    14 C14     33.2129  -6.6533   7.0445   C.2       1 RES1   0.0000
    15 C15     33.7533  -7.9070   6.6746   C.2       1 RES1   0.0000
    16 Cl16    34.1689  -8.2793   5.0039   Cl        1 RES1   0.0000
    17 C17     33.9189  -8.9194   7.6347   C.2       1 RES1   0.0000
    18 C18     32.5590 -10.5781  10.1957   C.2       1 RES1   0.0000
    19 C19     32.5061 -11.9818  10.1722   C.2       1 RES1   0.0000
    20 C20     31.2645 -12.6087  10.3814   C.2       1 RES1   0.0000
    21 C21     30.1049 -11.8407  10.5807   C.2       1 RES1   0.0000
    22 C22     30.2127 -10.4423  10.5886   C.2       1 RES1   0.0000
    23 N23     31.4245  -9.8650  10.3994   N.2       1 RES1   0.0000
    24 C24     37.2362 -11.1935   9.2270   C.2       1 RES1   0.0000
    25 N25     36.8312 -12.2945   8.5091   N.2       1 RES1   0.0000
    26 C26     37.5372 -13.3556   8.0178   C.2       1 RES1   0.0000
    27 N27     36.8403 -14.2960   7.3188   N.2       1 RES1   0.0000
    28 C28     37.4467 -15.3935   6.7775   C.2       1 RES1   0.0000
    29 C29     38.8381 -15.5585   6.9288   C.2       1 RES1   0.0000
    30 C30     39.5442 -14.5700   7.6499   C.2       1 RES1   0.0000
    31 N31     38.8838 -13.4959   8.1664   N.2       1 RES1   0.0000
    32 C32     38.5920 -10.8564   9.4224   C.2       1 RES1   0.0000
@<TRIPOS>BOND
     1     1     2    1
     2     2     3    2
     3     2     4    2
     4     2     5    1
     5     5     6    2
     6     6     7    1
     7     7     8    2
     8     8     9    1
     9    10     9    1
    10    10    11    1
    11    11    12    2
    12    12    13    1
    13    13    14    2
    14    14    15    1
    15    15    16    1
    16    15    17    2
    17    10    18    1
    18    18    19    2
    19    19    20    1
    20    20    21    2
    21    21    22    1
    22    22    23    2
    23     8    24    1
    24    24    25    1
    25    25    26    1
    26    26    27    2
    27    27    28    1
    28    28    29    2
    29    29    30    1
    30    30    31    2
    31    24    32    2
    32    32     5    1
    33    17    11    1
    34    23    18    1
    35    31    26    1
@<TRIPOS>SUBSTRUCTURE
     1 RES1        1 GROUP             0 ****  ****    0  
@<TRIPOS>MOLECULE
ligand_14
    32    35     1     0     0
SMALL
NO_CHARGES
****
Generated from the CSD

@<TRIPOS>ATOM
     1 C1      30.3421  -5.6433  15.0846   C.3       1 RES1   0.0000
     2 S2      30.3291  -7.4311  15.3363   S.o2      1 RES1   0.0000
     3 O3      30.8885  -7.7495  16.6448   O.2       1 RES1   0.0000
     4 O4      29.0511  -7.9725  14.9445   O.2       1 RES1   0.0000
     5 C5      31.5155  -7.9895  14.1594   C.2       1 RES1   0.0000
     6 C6      31.0549  -8.4745  12.9266   C.2       1 RES1   0.0000
     7 C7      31.9822  -8.8571  11.9649   C.2       1 RES1   0.0000
     8 C8      33.3600  -8.8251  12.2480   C.2       1 RES1   0.0000
     9 N9      34.2478  -9.2984  11.3523   N.2       1 RES1   0.0000
    10 C10     33.8663  -9.7744  10.0309   C.3       1 RES1   0.0000
    11 C11     33.7128  -8.6015   9.0439   C.2       1 RES1   0.0000
    12 C12     33.3930  -7.3036   9.4832   C.2       1 RES1   0.0000
    13 C13     33.3200  -6.2257   8.5617   C.2       1 RES1   0.0000
    14 C14     33.5963  -6.4514   7.2023   C.2       1 RES1   0.0000
    15 C15     33.9721  -7.7460   6.7737   C.2       1 RES1   0.0000
    16 Cl16    34.3254  -8.0955   5.0839   Cl        1 RES1   0.0000
    17 C17     34.0163  -8.8113   7.6888   C.2       1 RES1   0.0000
    18 C18     34.9182 -10.7134   9.4372   C.2       1 RES1   0.0000
    19 C19     34.5832 -11.8824   8.7337   C.2       1 RES1   0.0000
    20 C20     35.6235 -12.6626   8.1974   C.2       1 RES1   0.0000
    21 C21     36.9642 -12.2888   8.3896   C.2       1 RES1   0.0000
    22 C22     37.2434 -11.1153   9.1054   C.2       1 RES1   0.0000
    23 N23     36.2205 -10.3745   9.5981   N.2       1 RES1   0.0000
    24 C24     33.8269  -8.3501  13.4858   C.2       1 RES1   0.0000
    25 N25     35.1859  -8.2547  13.6752   N.2       1 RES1   0.0000
    26 C26     35.9179  -7.9377  14.7840   C.2       1 RES1   0.0000
    27 N27     37.2739  -7.9086  14.6463   N.2       1 RES1   0.0000
    28 C28     38.1013  -7.5970  15.6872   C.2       1 RES1   0.0000
    29 C29     37.5432  -7.2795  16.9418   C.2       1 RES1   0.0000
    30 C30     36.1360  -7.3077  17.0630   C.2       1 RES1   0.0000
    31 N31     35.3620  -7.6256  15.9876   N.2       1 RES1   0.0000
    32 C32     32.8830  -7.9102  14.4372   C.2       1 RES1   0.0000
@<TRIPOS>BOND
     1     1     2    1
     2     2     3    2
     3     2     4    2
     4     2     5    1
     5     5     6    2
     6     6     7    1
     7     7     8    2
     8     8     9    1
     9    10     9    1
    10    10    11    1
    11    11    12    2
    12    12    13    1
    13    13    14    2
    14    14    15    1
    15    15    16    1
    16    15    17    2
    17    10    18    1
    18    18    19    2
    19    19    20    1
    20    20    21    2
    21    21    22    1
    22    22    23    2
    23     8    24    1
    24    24    25    1
    25    25    26    1
    26    26    27    2
    27    27    28    1
    28    28    29    2
    29    29    30    1
    30    30    31    2
    31    24    32    2
    32    32     5    1
    33    17    11    1
    34    23    18    1
    35    31    26    1
@<TRIPOS>SUBSTRUCTURE
     1 RES1        1 GROUP             0 ****  ****    0  
@<TRIPOS>MOLECULE
ligand_15
    32    35     1     0     0
SMALL
NO_CHARGES
****
Generated from the CSD

@<TRIPOS>ATOM
     1 C1      29.7913  -8.9717  16.1087   C.3       1 RES1   0.0000
     2 S2      30.3291  -7.4311  15.3363   S.o2      1 RES1   0.0000
     3 O3      29.2359  -6.8613  14.5574   O.2       1 RES1   0.0000
     4 O4      31.0318  -6.6188  16.2988   O.2       1 RES1   0.0000
     5 C5      31.5155  -7.9895  14.1594   C.2       1 RES1   0.0000
     6 C6      31.0549  -8.4745  12.9266   C.2       1 RES1   0.0000
     7 C7      31.9822  -8.8571  11.9649   C.2       1 RES1   0.0000
     8 C8      33.3600  -8.8251  12.2480   C.2       1 RES1   0.0000
     9 N9      34.2478  -9.2984  11.3523   N.2       1 RES1   0.0000
    10 C10     33.8663  -9.7744  10.0309   C.3       1 RES1   0.0000
    11 C11     33.7128  -8.6015   9.0439   C.2       1 RES1   0.0000
    12 C12     33.3930  -7.3036   9.4832   C.2       1 RES1   0.0000
    13 C13     33.3200  -6.2257   8.5617   C.2       1 RES1   0.0000
    14 C14     33.5963  -6.4514   7.2023   C.2       1 RES1   0.0000
    15 C15     33.9721  -7.7460   6.7737   C.2       1 RES1   0.0000
    16 Cl16    34.3254  -8.0955   5.0839   Cl        1 RES1   0.0000
    17 C17     34.0163  -8.8113   7.6888   C.2       1 RES1   0.0000
    18 C18     34.9182 -10.7134   9.4372   C.2       1 RES1   0.0000
    19 C19     34.5832 -11.8824   8.7337   C.2       1 RES1   0.0000
    20 C20     35.6235 -12.6626   8.1974   C.2       1 RES1   0.0000
    21 C21     36.9642 -12.2888   8.3896   C.2       1 RES1   0.0000
    22 C22     37.2434 -11.1153   9.1054   C.2       1 RES1   0.0000
    23 N23     36.2205 -10.3745   9.5981   N.2       1 RES1   0.0000
    24 C24     33.8269  -8.3501  13.4858   C.2       1 RES1   0.0000
    25 N25     35.1859  -8.2547  13.6752   N.2       1 RES1   0.0000
    26 C26     35.9179  -7.9377  14.7840   C.2       1 RES1   0.0000
    27 N27     37.2739  -7.9086  14.6463   N.2       1 RES1   0.0000
    28 C28     38.1013  -7.5970  15.6872   C.2       1 RES1   0.0000
    29 C29     37.5432  -7.2795  16.9418   C.2       1 RES1   0.0000
    30 C30     36.1360  -7.3077  17.0630   C.2       1 RES1   0.0000
    31 N31     35.3620  -7.6256  15.9876   N.2       1 RES1   0.0000
    32 C32     32.8830  -7.9102  14.4372   C.2       1 RES1   0.0000
@<TRIPOS>BOND
     1     1     2    1
     2     2     3    2
     3     2     4    2
     4     2     5    1
     5     5     6    2
     6     6     7    1
     7     7     8    2
     8     8     9    1
     9    10     9    1
    10    10    11    1
    11    11    12    2
    12    12    13    1
    13    13    14    2
    14    14    15    1
    15    15    16    1
    16    15    17    2
    17    10    18    1
    18    18    19    2
    19    19    20    1
    20    20    21    2
    21    21    22    1
    22    22    23    2
    23     8    24    1
    24    24    25    1
    25    25    26    1
    26    26    27    2
    27    27    28    1
    28    28    29    2
    29    29    30    1
    30    30    31    2
    31    24    32    2
    32    32     5    1
    33    17    11    1
    34    23    18    1
    35    31    26    1
@<TRIPOS>SUBSTRUCTURE
     1 RES1        1 GROUP             0 ****  ****    0  
@<TRIPOS>MOLECULE
ligand_16
    32    35     1     0     0
SMALL
NO_CHARGES
****
Generated from the CSD

@<TRIPOS>ATOM
     1 C1      37.2014 -13.2175   4.3547   C.3       1 RES1   0.0000
     2 S2      37.7440 -13.6630   6.0180   S.o2      1 RES1   0.0000
     3 O3      37.6012 -15.1007   6.2154   O.2       1 RES1   0.0000
     4 O4      38.9962 -13.0125   6.3163   O.2       1 RES1   0.0000
     5 C5      36.5128 -12.9155   7.0327   C.2       1 RES1   0.0000
     6 C6      36.7929 -11.6698   7.6133   C.2       1 RES1   0.0000
     7 C7      35.8069 -11.0392   8.3623   C.2       1 RES1   0.0000
     8 C8      34.5714 -11.6713   8.5938   C.2       1 RES1   0.0000
     9 N9      33.6613 -11.1040   9.4089   N.2       1 RES1   0.0000
    10 C10     33.8387  -9.7876  10.0037   C.3       1 RES1   0.0000
    11 C11     33.3772  -8.6784   9.0393   C.2       1 RES1   0.0000
    12 C12     32.9220  -7.4329   9.5099   C.2       1 RES1   0.0000
    13 C13     32.5627  -6.4036   8.6002   C.2       1 RES1   0.0000
    14 C14     32.6885  -6.6207   7.2173   C.2       1 RES1   0.0000
    15 C15     33.1994  -7.8541   6.7498   C.2       1 RES1   0.0000
    16 Cl16    33.3761  -8.1907   5.0299   Cl        1 RES1   0.0000
    17 C17     33.5278  -8.8756   7.6569   C.2       1 RES1   0.0000
    18 C18     33.0183  -9.6253  11.2849   C.2       1 RES1   0.0000
    19 C19     33.5047  -8.9539  12.4191   C.2       1 RES1   0.0000
    20 C20     32.6601  -8.8292  13.5369   C.2       1 RES1   0.0000
    21 C21     31.3719  -9.3900  13.5208   C.2       1 RES1   0.0000
    22 C22     30.9382 -10.0554  12.3647   C.2       1 RES1   0.0000
    23 N23     31.7677 -10.1476  11.2965   N.2       1 RES1   0.0000
    24 C24     34.2891 -12.9246   8.0234   C.2       1 RES1   0.0000
    25 N25     33.0332 -13.4546   8.2067   N.2       1 RES1   0.0000
    26 C26     32.5154 -14.6735   7.8720   C.2       1 RES1   0.0000
    27 N27     31.2054 -14.8972   8.1763   N.2       1 RES1   0.0000
    28 C28     30.5841 -16.0769   7.8804   C.2       1 RES1   0.0000
    29 C29     31.3085 -17.0938   7.2267   C.2       1 RES1   0.0000
    30 C30     32.6624 -16.8406   6.9129   C.2       1 RES1   0.0000
    31 N31     33.2275 -15.6428   7.2330   N.2       1 RES1   0.0000
    32 C32     35.2732 -13.5343   7.2176   C.2       1 RES1   0.0000
@<TRIPOS>BOND
     1     1     2    1
     2     2     3    2
     3     2     4    2
     4     2     5    1
     5     5     6    2
     6     6     7    1
     7     7     8    2
     8     8     9    1
     9    10     9    1
    10    10    11    1
    11    11    12    2
    12    12    13    1
    13    13    14    2
    14    14    15    1
    15    15    16    1
    16    15    17    2
    17    10    18    1
    18    18    19    2
    19    19    20    1
    20    20    21    2
    21    21    22    1
    22    22    23    2
    23     8    24    1
    24    24    25    1
    25    25    26    1
    26    26    27    2
    27    27    28    1
    28    28    29    2
    29    29    30    1
    30    30    31    2
    31    24    32    2
    32    32     5    1
    33    17    11    1
    34    23    18    1
    35    31    26    1
@<TRIPOS>SUBSTRUCTURE
     1 RES1        1 GROUP             0 ****  ****    0  
@<TRIPOS>MOLECULE
ligand_17
    32    35     1     0     0
SMALL
NO_CHARGES
****
Generated from the CSD

@<TRIPOS>ATOM
     1 C1      38.8314 -14.4392   7.2323   C.3       1 RES1   0.0000
     2 S2      37.7440 -13.6630   6.0180   S.o2      1 RES1   0.0000
     3 O3      38.4409 -12.5616   5.3639   O.2       1 RES1   0.0000
     4 O4      37.0889 -14.6760   5.2276   O.2       1 RES1   0.0000
     5 C5      36.5128 -12.9155   7.0327   C.2       1 RES1   0.0000
     6 C6      36.7929 -11.6698   7.6133   C.2       1 RES1   0.0000
     7 C7      35.8069 -11.0392   8.3623   C.2       1 RES1   0.0000
     8 C8      34.5714 -11.6713   8.5938   C.2       1 RES1   0.0000
     9 N9      33.6613 -11.1040   9.4089   N.2       1 RES1   0.0000
    10 C10     33.8387  -9.7876  10.0037   C.3       1 RES1   0.0000
    11 C11     33.3772  -8.6784   9.0393   C.2       1 RES1   0.0000
    12 C12     32.9220  -7.4329   9.5099   C.2       1 RES1   0.0000
    13 C13     32.5627  -6.4036   8.6002   C.2       1 RES1   0.0000
    14 C14     32.6885  -6.6207   7.2173   C.2       1 RES1   0.0000
    15 C15     33.1994  -7.8541   6.7498   C.2       1 RES1   0.0000
    16 Cl16    33.3761  -8.1907   5.0299   Cl        1 RES1   0.0000
    17 C17     33.5278  -8.8756   7.6569   C.2       1 RES1   0.0000
    18 C18     33.0183  -9.6253  11.2849   C.2       1 RES1   0.0000
    19 C19     33.5047  -8.9539  12.4191   C.2       1 RES1   0.0000
    20 C20     32.6601  -8.8292  13.5369   C.2       1 RES1   0.0000
    21 C21     31.3719  -9.3900  13.5208   C.2       1 RES1   0.0000
    22 C22     30.9382 -10.0554  12.3647   C.2       1 RES1   0.0000
    23 N23     31.7677 -10.1476  11.2965   N.2       1 RES1   0.0000
    24 C24     34.2891 -12.9246   8.0234   C.2       1 RES1   0.0000
    25 N25     33.0332 -13.4546   8.2067   N.2       1 RES1   0.0000
    26 C26     32.5154 -14.6735   7.8720   C.2       1 RES1   0.0000
    27 N27     31.2054 -14.8972   8.1763   N.2       1 RES1   0.0000
    28 C28     30.5841 -16.0769   7.8804   C.2       1 RES1   0.0000
    29 C29     31.3085 -17.0938   7.2267   C.2       1 RES1   0.0000
    30 C30     32.6624 -16.8406   6.9129   C.2       1 RES1   0.0000
    31 N31     33.2275 -15.6428   7.2330   N.2       1 RES1   0.0000
    32 C32     35.2732 -13.5343   7.2176   C.2       1 RES1   0.0000
@<TRIPOS>BOND
     1     1     2    1
     2     2     3    2
     3     2     4    2
     4     2     5    1
     5     5     6    2
     6     6     7    1
     7     7     8    2
     8     8     9    1
     9    10     9    1
    10    10    11    1
    11    11    12    2
    12    12    13    1
    13    13    14    2
    14    14    15    1
    15    15    16    1
    16    15    17    2
    17    10    18    1
    18    18    19    2
    19    19    20    1
    20    20    21    2
    21    21    22    1
    22    22    23    2
    23     8    24    1
    24    24    25    1
    25    25    26    1
    26    26    27    2
    27    27    28    1
    28    28    29    2
    29    29    30    1
    30    30    31    2
    31    24    32    2
    32    32     5    1
    33    17    11    1
    34    23    18    1
    35    31    26    1
@<TRIPOS>SUBSTRUCTURE
     1 RES1        1 GROUP             0 ****  ****    0  
@<TRIPOS>MOLECULE
ligand_18
    32    35     1     0     0
SMALL
NO_CHARGES
****
Generated from the CSD

@<TRIPOS>ATOM
     1 C1      27.4001 -11.8248   6.9907   C.3       1 RES1   0.0000
     2 S2      28.5860 -13.1363   7.3555   S.o2      1 RES1   0.0000
     3 O3      27.9715 -14.1283   8.2299   O.2       1 RES1   0.0000
     4 O4      29.2472 -13.5511   6.1427   O.2       1 RES1   0.0000
     5 C5      29.7830 -12.3026   8.3437   C.2       1 RES1   0.0000
     6 C6      30.9554 -11.8435   7.7256   C.2       1 RES1   0.0000
     7 C7      31.8777 -11.1277   8.4793   C.2       1 RES1   0.0000
     8 C8      31.6729 -10.9268   9.8566   C.2       1 RES1   0.0000
     9 N9      32.6204 -10.3270  10.6030   N.2       1 RES1   0.0000
    10 C10     33.7890  -9.6757  10.0300   C.3       1 RES1   0.0000
    11 C11     33.3861  -8.4251   9.2255   C.2       1 RES1   0.0000
    12 C12     32.8540  -7.2834   9.8527   C.2       1 RES1   0.0000
    13 C13     32.5502  -6.1194   9.0983   C.2       1 RES1   0.0000
    14 C14     32.8085  -6.0973   7.7169   C.2       1 RES1   0.0000
    15 C15     33.3955  -7.2269   7.1002   C.2       1 RES1   0.0000
    16 Cl16    33.7389  -7.2646   5.3731   Cl        1 RES1   0.0000
    17 C17     33.6685  -8.3831   7.8505   C.2       1 RES1   0.0000
    18 C18     34.7677  -9.2077  11.1088   C.2       1 RES1   0.0000
    19 C19     36.0530  -8.7247  10.8114   C.2       1 RES1   0.0000
    20 C20     36.8660  -8.2871  11.8725   C.2       1 RES1   0.0000
    21 C21     36.4058  -8.3609  13.1980   C.2       1 RES1   0.0000
    22 C22     35.1165  -8.8574  13.4398   C.2       1 RES1   0.0000
    23 N23     34.3489  -9.2581  12.3968   N.2       1 RES1   0.0000
    24 C24     30.5049 -11.3940  10.4837   C.2       1 RES1   0.0000
    25 N25     30.3136 -11.0906  11.8115   N.2       1 RES1   0.0000
    26 C26     29.3969 -11.5493  12.7143   C.2       1 RES1   0.0000
    27 N27     28.5342 -12.5152  12.2883   N.2       1 RES1   0.0000
    28 C28     27.5827 -13.0501  13.1091   C.2       1 RES1   0.0000
    29 C29     27.4932 -12.6061  14.4436   C.2       1 RES1   0.0000
    30 C30     28.4004 -11.6101  14.8687   C.2       1 RES1   0.0000
    31 N31     29.3291 -11.1147  14.0034   N.2       1 RES1   0.0000
    32 C32     29.5460 -12.0710   9.7015   C.2       1 RES1   0.0000
@<TRIPOS>BOND
     1     1     2    1
     2     2     3    2
     3     2     4    2
     4     2     5    1
     5     5     6    2
     6     6     7    1
     7     7     8    2
     8     8     9    1
     9    10     9    1
    10    10    11    1
    11    11    12    2
    12    12    13    1
    13    13    14    2
    14    14    15    1
    15    15    16    1
    16    15    17    2
    17    10    18    1
    18    18    19    2
    19    19    20    1
    20    20    21    2
    21    21    22    1
    22    22    23    2
    23     8    24    1
    24    24    25    1
    25    25    26    1
    26    26    27    2
    27    27    28    1
    28    28    29    2
    29    29    30    1
    30    30    31    2
    31    24    32    2
    32    32     5    1
    33    17    11    1
    34    23    18    1
    35    31    26    1
@<TRIPOS>SUBSTRUCTURE
     1 RES1        1 GROUP             0 ****  ****    0  
@<TRIPOS>MOLECULE
ligand_19
    32    35     1     0     0
SMALL
NO_CHARGES
****
Generated from the CSD

@<TRIPOS>ATOM
     1 C1      29.2423 -14.8166   7.2830   C.3       1 RES1   0.0000
     2 S2      28.5860 -13.1363   7.3555   S.o2      1 RES1   0.0000
     3 O3      28.6618 -12.5194   6.0364   O.2       1 RES1   0.0000
     4 O4      27.3443 -13.1257   8.0890   O.2       1 RES1   0.0000
     5 C5      29.7830 -12.3026   8.3437   C.2       1 RES1   0.0000
     6 C6      30.9554 -11.8435   7.7256   C.2       1 RES1   0.0000
     7 C7      31.8777 -11.1277   8.4793   C.2       1 RES1   0.0000
     8 C8      31.6729 -10.9268   9.8566   C.2       1 RES1   0.0000
     9 N9      32.6204 -10.3270  10.6030   N.2       1 RES1   0.0000
    10 C10     33.7890  -9.6757  10.0300   C.3       1 RES1   0.0000
    11 C11     33.3861  -8.4251   9.2255   C.2       1 RES1   0.0000
    12 C12     32.8540  -7.2834   9.8527   C.2       1 RES1   0.0000
    13 C13     32.5502  -6.1194   9.0983   C.2       1 RES1   0.0000
    14 C14     32.8085  -6.0973   7.7169   C.2       1 RES1   0.0000
    15 C15     33.3955  -7.2269   7.1002   C.2       1 RES1   0.0000
    16 Cl16    33.7389  -7.2646   5.3731   Cl        1 RES1   0.0000
    17 C17     33.6685  -8.3831   7.8505   C.2       1 RES1   0.0000
    18 C18     34.7677  -9.2077  11.1088   C.2       1 RES1   0.0000
    19 C19     36.0530  -8.7247  10.8114   C.2       1 RES1   0.0000
    20 C20     36.8660  -8.2871  11.8725   C.2       1 RES1   0.0000
    21 C21     36.4058  -8.3609  13.1980   C.2       1 RES1   0.0000
    22 C22     35.1165  -8.8574  13.4398   C.2       1 RES1   0.0000
    23 N23     34.3489  -9.2581  12.3968   N.2       1 RES1   0.0000
    24 C24     30.5049 -11.3940  10.4837   C.2       1 RES1   0.0000
    25 N25     30.3136 -11.0906  11.8115   N.2       1 RES1   0.0000
    26 C26     29.3969 -11.5493  12.7143   C.2       1 RES1   0.0000
    27 N27     28.5342 -12.5152  12.2883   N.2       1 RES1   0.0000
    28 C28     27.5827 -13.0501  13.1091   C.2       1 RES1   0.0000
    29 C29     27.4932 -12.6061  14.4436   C.2       1 RES1   0.0000
    30 C30     28.4004 -11.6101  14.8687   C.2       1 RES1   0.0000
    31 N31     29.3291 -11.1147  14.0034   N.2       1 RES1   0.0000
    32 C32     29.5460 -12.0710   9.7015   C.2       1 RES1   0.0000
@<TRIPOS>BOND
     1     1     2    1
     2     2     3    2
     3     2     4    2
     4     2     5    1
     5     5     6    2
     6     6     7    1
     7     7     8    2
     8     8     9    1
     9    10     9    1
    10    10    11    1
    11    11    12    2
    12    12    13    1
    13    13    14    2
    14    14    15    1
    15    15    16    1
    16    15    17    2
    17    10    18    1
    18    18    19    2
    19    19    20    1
    20    20    21    2
    21    21    22    1
    22    22    23    2
    23     8    24    1
    24    24    25    1
    25    25    26    1
    26    26    27    2
    27    27    28    1
    28    28    29    2
    29    29    30    1
    30    30    31    2
    31    24    32    2
    32    32     5    1
    33    17    11    1
    34    23    18    1
    35    31    26    1
@<TRIPOS>SUBSTRUCTURE
     1 RES1        1 GROUP             0 ****  ****    0  
@<TRIPOS>MOLECULE
ligand_20
    32    35     1     0     0
SMALL
NO_CHARGES
****
Generated from the CSD

@<TRIPOS>ATOM
     1 C1      26.8174 -11.8730  10.5877   C.3       1 RES1   0.0000
     2 S2      27.9776 -12.8816  11.5344   S.o2      1 RES1   0.0000
     3 O3      27.5930 -12.8873  12.9410   O.2       1 RES1   0.0000
     4 O4      28.2219 -14.1251  10.8459   O.2       1 RES1   0.0000
     5 C5      29.4620 -11.9364  11.4475   C.2       1 RES1   0.0000
     6 C6      30.4226 -12.2897  10.4885   C.2       1 RES1   0.0000
     7 C7      31.5684 -11.5132  10.3656   C.2       1 RES1   0.0000
     8 C8      31.7952 -10.4313  11.2361   C.2       1 RES1   0.0000
     9 N9      32.9559  -9.7498  11.1832   N.2       1 RES1   0.0000
    10 C10     33.7751  -9.6679   9.9831   C.3       1 RES1   0.0000
    11 C11     33.4047  -8.4299   9.1443   C.2       1 RES1   0.0000
    12 C12     32.9308  -7.2476   9.7422   C.2       1 RES1   0.0000
    13 C13     32.6570  -6.0984   8.9544   C.2       1 RES1   0.0000
    14 C14     32.8871  -6.1328   7.5683   C.2       1 RES1   0.0000
    15 C15     33.4166  -7.3048   6.9794   C.2       1 RES1   0.0000
    16 Cl16    33.7220  -7.4140   5.2482   Cl        1 RES1   0.0000
    17 C17     33.6598  -8.4452   7.7633   C.2       1 RES1   0.0000
    18 C18     35.2634  -9.5441  10.3156   C.2       1 RES1   0.0000
    19 C19     36.2638 -10.2025   9.5811   C.2       1 RES1   0.0000
    20 C20     37.6067  -9.9979   9.9461   C.2       1 RES1   0.0000
    21 C21     37.9292  -9.1748  11.0381   C.2       1 RES1   0.0000
    22 C22     36.8911  -8.5462  11.7413   C.2       1 RES1   0.0000
    23 N23     35.6067  -8.7493  11.3583   N.2       1 RES1   0.0000
    24 C24     30.8410 -10.0792  12.2063   C.2       1 RES1   0.0000
    25 N25     31.0720  -8.9583  12.9691   N.2       1 RES1   0.0000
    26 C26     30.3915  -8.4415  14.0348   C.2       1 RES1   0.0000
    27 N27     30.8688  -7.2845  14.5753   N.2       1 RES1   0.0000
    28 C28     30.2626  -6.6771  15.6378   C.2       1 RES1   0.0000
    29 C29     29.0985  -7.2495  16.1885   C.2       1 RES1   0.0000
    30 C30     28.6149  -8.4442  15.6101   C.2       1 RES1   0.0000
    31 N31     29.2628  -9.0035  14.5500   N.2       1 RES1   0.0000
    32 C32     29.6541 -10.8369  12.2889   C.2       1 RES1   0.0000
@<TRIPOS>BOND
     1     1     2    1
     2     2     3    2
     3     2     4    2
     4     2     5    1
     5     5     6    2
     6     6     7    1
     7     7     8    2
     8     8     9    1
     9    10     9    1
    10    10    11    1
    11    11    12    2
    12    12    13    1
    13    13    14    2
    14    14    15    1
    15    15    16    1
    16    15    17    2
    17    10    18    1
    18    18    19    2
    19    19    20    1
    20    20    21    2
    21    21    22    1
    22    22    23    2
    23     8    24    1
    24    24    25    1
    25    25    26    1
    26    26    27    2
    27    27    28    1
    28    28    29    2
    29    29    30    1
    30    30    31    2
    31    24    32    2
    32    32     5    1
    33    17    11    1
    34    23    18    1
    35    31    26    1
@<TRIPOS>SUBSTRUCTURE
     1 RES1        1 GROUP             0 ****  ****    0  
@<TRIPOS>MOLECULE
ligand_21
    32    35     1     0     0
SMALL
NO_CHARGES
****
Generated from the CSD

@<TRIPOS>ATOM
     1 C1      28.4810 -14.3083  12.5196   C.3       1 RES1   0.0000
     2 S2      27.9776 -12.8816  11.5344   S.o2      1 RES1   0.0000
     3 O3      27.6941 -13.3011  10.1669   O.2       1 RES1   0.0000
     4 O4      27.0133 -12.0964  12.2650   O.2       1 RES1   0.0000
     5 C5      29.4620 -11.9364  11.4475   C.2       1 RES1   0.0000
     6 C6      30.4226 -12.2897  10.4885   C.2       1 RES1   0.0000
     7 C7      31.5684 -11.5132  10.3656   C.2       1 RES1   0.0000
     8 C8      31.7952 -10.4313  11.2361   C.2       1 RES1   0.0000
     9 N9      32.9559  -9.7498  11.1832   N.2       1 RES1   0.0000
    10 C10     33.7751  -9.6679   9.9831   C.3       1 RES1   0.0000
    11 C11     33.4047  -8.4299   9.1443   C.2       1 RES1   0.0000
    12 C12     32.9308  -7.2476   9.7422   C.2       1 RES1   0.0000
    13 C13     32.6570  -6.0984   8.9544   C.2       1 RES1   0.0000
    14 C14     32.8871  -6.1328   7.5683   C.2       1 RES1   0.0000
    15 C15     33.4166  -7.3048   6.9794   C.2       1 RES1   0.0000
    16 Cl16    33.7220  -7.4140   5.2482   Cl        1 RES1   0.0000
    17 C17     33.6598  -8.4452   7.7633   C.2       1 RES1   0.0000
    18 C18     35.2634  -9.5441  10.3156   C.2       1 RES1   0.0000
    19 C19     36.2638 -10.2025   9.5811   C.2       1 RES1   0.0000
    20 C20     37.6067  -9.9979   9.9461   C.2       1 RES1   0.0000
    21 C21     37.9292  -9.1748  11.0381   C.2       1 RES1   0.0000
    22 C22     36.8911  -8.5462  11.7413   C.2       1 RES1   0.0000
    23 N23     35.6067  -8.7493  11.3583   N.2       1 RES1   0.0000
    24 C24     30.8410 -10.0792  12.2063   C.2       1 RES1   0.0000
    25 N25     31.0720  -8.9583  12.9691   N.2       1 RES1   0.0000
    26 C26     30.3915  -8.4415  14.0348   C.2       1 RES1   0.0000
    27 N27     30.8688  -7.2845  14.5753   N.2       1 RES1   0.0000
    28 C28     30.2626  -6.6771  15.6378   C.2       1 RES1   0.0000
    29 C29     29.0985  -7.2495  16.1885   C.2       1 RES1   0.0000
    30 C30     28.6149  -8.4442  15.6101   C.2       1 RES1   0.0000
    31 N31     29.2628  -9.0035  14.5500   N.2       1 RES1   0.0000
    32 C32     29.6541 -10.8369  12.2889   C.2       1 RES1   0.0000
@<TRIPOS>BOND
     1     1     2    1
     2     2     3    2
     3     2     4    2
     4     2     5    1
     5     5     6    2
     6     6     7    1
     7     7     8    2
     8     8     9    1
     9    10     9    1
    10    10    11    1
    11    11    12    2
    12    12    13    1
    13    13    14    2
    14    14    15    1
    15    15    16    1
    16    15    17    2
    17    10    18    1
    18    18    19    2
    19    19    20    1
    20    20    21    2
    21    21    22    1
    22    22    23    2
    23     8    24    1
    24    24    25    1
    25    25    26    1
    26    26    27    2
    27    27    28    1
    28    28    29    2
    29    29    30    1
    30    30    31    2
    31    24    32    2
    32    32     5    1
    33    17    11    1
    34    23    18    1
    35    31    26    1
@<TRIPOS>SUBSTRUCTURE
     1 RES1        1 GROUP             0 ****  ****    0  
@<TRIPOS>MOLECULE
ligand_22
    32    35     1     0     0
SMALL
NO_CHARGES
****
Generated from the CSD

@<TRIPOS>ATOM
     1 C1      30.0481 -14.9899  13.7581   C.3       1 RES1   0.0000
     2 S2      31.6231 -14.4593  14.4634   S.o2      1 RES1   0.0000
     3 O3      31.4161 -13.9700  15.8214   O.2       1 RES1   0.0000
     4 O4      32.6380 -15.4489  14.1976   O.2       1 RES1   0.0000
     5 C5      32.0134 -13.0388  13.4968   C.2       1 RES1   0.0000
     6 C6      32.9020 -13.1870  12.4218   C.2       1 RES1   0.0000
     7 C7      33.1678 -12.0895  11.6120   C.2       1 RES1   0.0000
     8 C8      32.6098 -10.8321  11.9067   C.2       1 RES1   0.0000
     9 N9      32.9559  -9.7498  11.1832   N.2       1 RES1   0.0000
    10 C10     33.7846  -9.8242   9.9891   C.3       1 RES1   0.0000
    11 C11     33.5156  -8.6297   9.0542   C.2       1 RES1   0.0000
    12 C12     33.2045  -7.3531   9.5578   C.2       1 RES1   0.0000
    13 C13     33.0239  -6.2531   8.6783   C.2       1 RES1   0.0000
    14 C14     33.1841  -6.4344   7.2938   C.2       1 RES1   0.0000
    15 C15     33.5519  -7.7064   6.7961   C.2       1 RES1   0.0000
    16 Cl16    33.7625  -8.0004   5.0723   Cl        1 RES1   0.0000
    17 C17     33.7029  -8.7945   7.6721   C.2       1 RES1   0.0000
    18 C18     35.2764  -9.7906  10.3270   C.2       1 RES1   0.0000
    19 C19     35.7584  -9.8360  11.6459   C.2       1 RES1   0.0000
    20 C20     37.1499  -9.8331  11.8507   C.2       1 RES1   0.0000
    21 C21     38.0294  -9.7584  10.7574   C.2       1 RES1   0.0000
    22 C22     37.4950  -9.7087   9.4615   C.2       1 RES1   0.0000
    23 N23     36.1501  -9.7281   9.2928   N.2       1 RES1   0.0000
    24 C24     31.7270 -10.6751  12.9892   C.2       1 RES1   0.0000
    25 N25     31.1396  -9.4457  13.1766   N.2       1 RES1   0.0000
    26 C26     30.3468  -8.9735  14.1837   C.2       1 RES1   0.0000
    27 N27     29.8962  -7.6917  14.0712   N.2       1 RES1   0.0000
    28 C28     29.0920  -7.1208  15.0159   C.2       1 RES1   0.0000
    29 C29     28.6988  -7.8785  16.1372   C.2       1 RES1   0.0000
    30 C30     29.1696  -9.2071  16.2326   C.2       1 RES1   0.0000
    31 N31     29.9696  -9.7221  15.2572   N.2       1 RES1   0.0000
    32 C32     31.4169 -11.8055  13.7740   C.2       1 RES1   0.0000
@<TRIPOS>BOND
     1     1     2    1
     2     2     3    2
     3     2     4    2
     4     2     5    1
     5     5     6    2
     6     6     7    1
     7     7     8    2
     8     8     9    1
     9    10     9    1
    10    10    11    1
    11    11    12    2
    12    12    13    1
    13    13    14    2
    14    14    15    1
    15    15    16    1
    16    15    17    2
    17    10    18    1
    18    18    19    2
    19    19    20    1
    20    20    21    2
    21    21    22    1
    22    22    23    2
    23     8    24    1
    24    24    25    1
    25    25    26    1
    26    26    27    2
    27    27    28    1
    28    28    29    2
    29    29    30    1
    30    30    31    2
    31    24    32    2
    32    32     5    1
    33    17    11    1
    34    23    18    1
    35    31    26    1
@<TRIPOS>SUBSTRUCTURE
     1 RES1        1 GROUP             0 ****  ****    0  
@<TRIPOS>MOLECULE
ligand_23
    32    35     1     0     0
SMALL
NO_CHARGES
****
Generated from the CSD

@<TRIPOS>ATOM
     1 C1      33.0253 -14.5571  15.5963   C.3       1 RES1   0.0000
     2 S2      31.6231 -14.4593  14.4634   S.o2      1 RES1   0.0000
     3 O3      31.6545 -15.5877  13.5404   O.2       1 RES1   0.0000
     4 O4      30.4189 -14.1585  15.1979   O.2       1 RES1   0.0000
     5 C5      32.0134 -13.0388  13.4968   C.2       1 RES1   0.0000
     6 C6      32.9020 -13.1870  12.4218   C.2       1 RES1   0.0000
     7 C7      33.1678 -12.0895  11.6120   C.2       1 RES1   0.0000
     8 C8      32.6098 -10.8321  11.9067   C.2       1 RES1   0.0000
     9 N9      32.9559  -9.7498  11.1832   N.2       1 RES1   0.0000
    10 C10     33.7846  -9.8242   9.9891   C.3       1 RES1   0.0000
    11 C11     33.5156  -8.6297   9.0542   C.2       1 RES1   0.0000
    12 C12     33.2045  -7.3531   9.5578   C.2       1 RES1   0.0000
    13 C13     33.0239  -6.2531   8.6783   C.2       1 RES1   0.0000
    14 C14     33.1841  -6.4344   7.2938   C.2       1 RES1   0.0000
    15 C15     33.5519  -7.7064   6.7961   C.2       1 RES1   0.0000
    16 Cl16    33.7625  -8.0004   5.0723   Cl        1 RES1   0.0000
    17 C17     33.7029  -8.7945   7.6721   C.2       1 RES1   0.0000
    18 C18     35.2764  -9.7906  10.3270   C.2       1 RES1   0.0000
    19 C19     35.7584  -9.8360  11.6459   C.2       1 RES1   0.0000
    20 C20     37.1499  -9.8331  11.8507   C.2       1 RES1   0.0000
    21 C21     38.0294  -9.7584  10.7574   C.2       1 RES1   0.0000
    22 C22     37.4950  -9.7087   9.4615   C.2       1 RES1   0.0000
    23 N23     36.1501  -9.7281   9.2928   N.2       1 RES1   0.0000
    24 C24     31.7270 -10.6751  12.9892   C.2       1 RES1   0.0000
    25 N25     31.1396  -9.4457  13.1766   N.2       1 RES1   0.0000
    26 C26     30.3468  -8.9735  14.1837   C.2       1 RES1   0.0000
    27 N27     29.8962  -7.6917  14.0712   N.2       1 RES1   0.0000
    28 C28     29.0920  -7.1208  15.0159   C.2       1 RES1   0.0000
    29 C29     28.6988  -7.8785  16.1372   C.2       1 RES1   0.0000
    30 C30     29.1696  -9.2071  16.2326   C.2       1 RES1   0.0000
    31 N31     29.9696  -9.7221  15.2572   N.2       1 RES1   0.0000
    32 C32     31.4169 -11.8055  13.7740   C.2       1 RES1   0.0000
@<TRIPOS>BOND
     1     1     2    1
     2     2     3    2
     3     2     4    2
     4     2     5    1
     5     5     6    2
     6     6     7    1
     7     7     8    2
     8     8     9    1
     9    10     9    1
    10    10    11    1
    11    11    12    2
    12    12    13    1
    13    13    14    2
    14    14    15    1
    15    15    16    1
    16    15    17    2
    17    10    18    1
    18    18    19    2
    19    19    20    1
    20    20    21    2
    21    21    22    1
    22    22    23    2
    23     8    24    1
    24    24    25    1
    25    25    26    1
    26    26    27    2
    27    27    28    1
    28    28    29    2
    29    29    30    1
    30    30    31    2
    31    24    32    2
    32    32     5    1
    33    17    11    1
    34    23    18    1
    35    31    26    1
@<TRIPOS>SUBSTRUCTURE
     1 RES1        1 GROUP             0 ****  ****    0  
@<TRIPOS>MOLECULE
ligand_24
    32    35     1     0     0
SMALL
NO_CHARGES
****
Generated from the CSD

@<TRIPOS>ATOM
     1 C1      39.6505 -12.9571  13.4727   C.3       1 RES1   0.0000
     2 S2      38.1940 -13.9876  13.1960   S.o2      1 RES1   0.0000
     3 O3      38.5668 -15.1758  12.4374   O.2       1 RES1   0.0000
     4 O4      37.4446 -14.1170  14.4214   O.2       1 RES1   0.0000
     5 C5      37.2327 -13.0003  12.0980   C.2       1 RES1   0.0000
     6 C6      36.1951 -12.2238  12.6342   C.2       1 RES1   0.0000
     7 C7      35.4714 -11.3913  11.7890   C.2       1 RES1   0.0000
     8 C8      35.7284 -11.3794  10.4058   C.2       1 RES1   0.0000
     9 N9      34.9532 -10.6526   9.5780   N.2       1 RES1   0.0000
    10 C10     33.9249  -9.7379  10.0513   C.3       1 RES1   0.0000
    11 C11     33.6488  -8.6323   9.0145   C.2       1 RES1   0.0000
    12 C12     33.3863  -7.3053   9.4022   C.2       1 RES1   0.0000
    13 C13     33.1982  -6.2908   8.4267   C.2       1 RES1   0.0000
    14 C14     33.3022  -6.6089   7.0616   C.2       1 RES1   0.0000
    15 C15     33.6216  -7.9322   6.6775   C.2       1 RES1   0.0000
    16 Cl16    33.7606  -8.3965   4.9841   Cl        1 RES1   0.0000
    17 C17     33.7802  -8.9345   7.6493   C.2       1 RES1   0.0000
    18 C18     32.5945 -10.4526  10.2964   C.2       1 RES1   0.0000
    19 C19     32.4545 -11.8480  10.2126   C.2       1 RES1   0.0000
    20 C20     31.1959 -12.4123  10.4884   C.2       1 RES1   0.0000
    21 C21     30.1035 -11.5901  10.8121   C.2       1 RES1   0.0000
    22 C22     30.2968 -10.2023  10.8758   C.2       1 RES1   0.0000
    23 N23     31.5241  -9.6868  10.6199   N.2       1 RES1   0.0000
    24 C24     36.7600 -12.1636   9.8612   C.2       1 RES1   0.0000
    25 N25     37.0275 -12.0445   8.5174   N.2       1 RES1   0.0000
    26 C26     37.8742 -12.7437   7.7050   C.2       1 RES1   0.0000
    27 N27     37.9316 -12.3675   6.3958   N.2       1 RES1   0.0000
    28 C28     38.7487 -12.9925   5.4975   C.2       1 RES1   0.0000
    29 C29     39.5725 -14.0499   5.9327   C.2       1 RES1   0.0000
    30 C30     39.5046 -14.4204   7.2943   C.2       1 RES1   0.0000
    31 N31     38.6697 -13.7585   8.1437   N.2       1 RES1   0.0000
    32 C32     37.5281 -12.9643  10.7323   C.2       1 RES1   0.0000
@<TRIPOS>BOND
     1     1     2    1
     2     2     3    2
     3     2     4    2
     4     2     5    1
     5     5     6    2
     6     6     7    1
     7     7     8    2
     8     8     9    1
     9    10     9    1
    10    10    11    1
    11    11    12    2
    12    12    13    1
    13    13    14    2
    14    14    15    1
    15    15    16    1
    16    15    17    2
    17    10    18    1
    18    18    19    2
    19    19    20    1
    20    20    21    2
    21    21    22    1
    22    22    23    2
    23     8    24    1
    24    24    25    1
    25    25    26    1
    26    26    27    2
    27    27    28    1
    28    28    29    2
    29    29    30    1
    30    30    31    2
    31    24    32    2
    32    32     5    1
    33    17    11    1
    34    23    18    1
    35    31    26    1
@<TRIPOS>SUBSTRUCTURE
     1 RES1        1 GROUP             0 ****  ****    0  
@<TRIPOS>MOLECULE
ligand_25
    32    35     1     0     0
SMALL
NO_CHARGES
****
Generated from the CSD

@<TRIPOS>ATOM
     1 C1      37.1630 -15.4547  13.4051   C.3       1 RES1   0.0000
     2 S2      38.1940 -13.9876  13.1960   S.o2      1 RES1   0.0000
     3 O3      38.2538 -13.2435  14.4487   O.2       1 RES1   0.0000
     4 O4      39.4097 -14.3369  12.5031   O.2       1 RES1   0.0000
     5 C5      37.2327 -13.0003  12.0980   C.2       1 RES1   0.0000
     6 C6      36.1951 -12.2238  12.6342   C.2       1 RES1   0.0000
     7 C7      35.4714 -11.3913  11.7890   C.2       1 RES1   0.0000
     8 C8      35.7284 -11.3794  10.4058   C.2       1 RES1   0.0000
     9 N9      34.9532 -10.6526   9.5780   N.2       1 RES1   0.0000
    10 C10     33.9249  -9.7379  10.0513   C.3       1 RES1   0.0000
    11 C11     33.6488  -8.6323   9.0145   C.2       1 RES1   0.0000
    12 C12     33.3863  -7.3053   9.4022   C.2       1 RES1   0.0000
    13 C13     33.1982  -6.2908   8.4267   C.2       1 RES1   0.0000
    14 C14     33.3022  -6.6089   7.0616   C.2       1 RES1   0.0000
    15 C15     33.6216  -7.9322   6.6775   C.2       1 RES1   0.0000
    16 Cl16    33.7606  -8.3965   4.9841   Cl        1 RES1   0.0000
    17 C17     33.7802  -8.9345   7.6493   C.2       1 RES1   0.0000
    18 C18     32.5945 -10.4526  10.2964   C.2       1 RES1   0.0000
    19 C19     32.4545 -11.8480  10.2126   C.2       1 RES1   0.0000
    20 C20     31.1959 -12.4123  10.4884   C.2       1 RES1   0.0000
    21 C21     30.1035 -11.5901  10.8121   C.2       1 RES1   0.0000
    22 C22     30.2968 -10.2023  10.8758   C.2       1 RES1   0.0000
    23 N23     31.5241  -9.6868  10.6199   N.2       1 RES1   0.0000
    24 C24     36.7600 -12.1636   9.8612   C.2       1 RES1   0.0000
    25 N25     37.0275 -12.0445   8.5174   N.2       1 RES1   0.0000
    26 C26     37.8742 -12.7437   7.7050   C.2       1 RES1   0.0000
    27 N27     37.9316 -12.3675   6.3958   N.2       1 RES1   0.0000
    28 C28     38.7487 -12.9925   5.4975   C.2       1 RES1   0.0000
    29 C29     39.5725 -14.0499   5.9327   C.2       1 RES1   0.0000
    30 C30     39.5046 -14.4204   7.2943   C.2       1 RES1   0.0000
    31 N31     38.6697 -13.7585   8.1437   N.2       1 RES1   0.0000
    32 C32     37.5281 -12.9643  10.7323   C.2       1 RES1   0.0000
@<TRIPOS>BOND
     1     1     2    1
     2     2     3    2
     3     2     4    2
     4     2     5    1
     5     5     6    2
     6     6     7    1
     7     7     8    2
     8     8     9    1
     9    10     9    1
    10    10    11    1
    11    11    12    2
    12    12    13    1
    13    13    14    2
    14    14    15    1
    15    15    16    1
    16    15    17    2
    17    10    18    1
    18    18    19    2
    19    19    20    1
    20    20    21    2
    21    21    22    1
    22    22    23    2
    23     8    24    1
    24    24    25    1
    25    25    26    1
    26    26    27    2
    27    27    28    1
    28    28    29    2
    29    29    30    1
    30    30    31    2
    31    24    32    2
    32    32     5    1
    33    17    11    1
    34    23    18    1
    35    31    26    1
@<TRIPOS>SUBSTRUCTURE
     1 RES1        1 GROUP             0 ****  ****    0  
@<TRIPOS>MOLECULE
ligand_26
    32    35     1     0     0
SMALL
NO_CHARGES
****
Generated from the CSD

@<TRIPOS>ATOM
     1 C1      32.0454 -11.7539  16.9794   C.3       1 RES1   0.0000
     2 S2      33.5976 -12.3986  16.3203   S.o2      1 RES1   0.0000
     3 O3      34.7015 -12.0150  17.1925   O.2       1 RES1   0.0000
     4 O4      33.4299 -13.7765  15.9289   O.2       1 RES1   0.0000
     5 C5      33.8041 -11.4582  14.8447   C.2       1 RES1   0.0000
     6 C6      33.4110 -12.0328  13.6271   C.2       1 RES1   0.0000
     7 C7      33.5078 -11.2780  12.4643   C.2       1 RES1   0.0000
     8 C8      34.0568  -9.9830  12.4966   C.2       1 RES1   0.0000
     9 N9      34.2478  -9.2984  11.3523   N.2       1 RES1   0.0000
    10 C10     33.7767  -9.7676  10.0577   C.3       1 RES1   0.0000
    11 C11     33.5657  -8.5906   9.0864   C.2       1 RES1   0.0000
    12 C12     33.2587  -7.2975   9.5487   C.2       1 RES1   0.0000
    13 C13     33.1320  -6.2152   8.6382   C.2       1 RES1   0.0000
    14 C14     33.3421  -6.4313   7.2654   C.2       1 RES1   0.0000
    15 C15     33.7055  -7.7207   6.8112   C.2       1 RES1   0.0000
    16 Cl16    33.9769  -8.0582   5.1039   Cl        1 RES1   0.0000
    17 C17     33.8029  -8.7906   7.7167   C.2       1 RES1   0.0000
    18 C18     34.7809 -10.7112   9.3930   C.2       1 RES1   0.0000
    19 C19     34.3926 -11.8762   8.7104   C.2       1 RES1   0.0000
    20 C20     35.3901 -12.6610   8.1042   C.2       1 RES1   0.0000
    21 C21     36.7429 -12.2957   8.2076   C.2       1 RES1   0.0000
    22 C22     37.0763 -11.1259   8.9060   C.2       1 RES1   0.0000
    23 N23     36.0931 -10.3805   9.4676   N.2       1 RES1   0.0000
    24 C24     34.4624  -9.4061  13.7125   C.2       1 RES1   0.0000
    25 N25     34.9067  -8.1045  13.6987   N.2       1 RES1   0.0000
    26 C26     35.4593  -7.3339  14.6818   C.2       1 RES1   0.0000
    27 N27     35.7842  -6.0503  14.3568   N.2       1 RES1   0.0000
    28 C28     36.3353  -5.1906  15.2637   C.2       1 RES1   0.0000
    29 C29     36.5642  -5.6316  16.5825   C.2       1 RES1   0.0000
    30 C30     36.2142  -6.9625  16.9022   C.2       1 RES1   0.0000
    31 N31     35.6667  -7.7736  15.9541   N.2       1 RES1   0.0000
    32 C32     34.3095 -10.1562  14.8973   C.2       1 RES1   0.0000
@<TRIPOS>BOND
     1     1     2    1
     2     2     3    2
     3     2     4    2
     4     2     5    1
     5     5     6    2
     6     6     7    1
     7     7     8    2
     8     8     9    1
     9    10     9    1
    10    10    11    1
    11    11    12    2
    12    12    13    1
    13    13    14    2
    14    14    15    1
    15    15    16    1
    16    15    17    2
    17    10    18    1
    18    18    19    2
    19    19    20    1
    20    20    21    2
    21    21    22    1
    22    22    23    2
    23     8    24    1
    24    24    25    1
    25    25    26    1
    26    26    27    2
    27    27    28    1
    28    28    29    2
    29    29    30    1
    30    30    31    2
    31    24    32    2
    32    32     5    1
    33    17    11    1
    34    23    18    1
    35    31    26    1
@<TRIPOS>SUBSTRUCTURE
     1 RES1        1 GROUP             0 ****  ****    0  
@<TRIPOS>MOLECULE
ligand_27
    32    35     1     0     0
SMALL
NO_CHARGES
****
Generated from the CSD

@<TRIPOS>ATOM
     1 C1      35.0586 -13.4593  16.3141   C.3       1 RES1   0.0000
     2 S2      33.5976 -12.3986  16.3203   S.o2      1 RES1   0.0000
     3 O3      32.4009 -13.2053  16.1121   O.2       1 RES1   0.0000
     4 O4      33.6653 -11.4767  17.4274   O.2       1 RES1   0.0000
     5 C5      33.8041 -11.4582  14.8447   C.2       1 RES1   0.0000
     6 C6      33.4110 -12.0328  13.6271   C.2       1 RES1   0.0000
     7 C7      33.5078 -11.2780  12.4643   C.2       1 RES1   0.0000
     8 C8      34.0568  -9.9830  12.4966   C.2       1 RES1   0.0000
     9 N9      34.2478  -9.2984  11.3523   N.2       1 RES1   0.0000
    10 C10     33.7767  -9.7676  10.0577   C.3       1 RES1   0.0000
    11 C11     33.5657  -8.5906   9.0864   C.2       1 RES1   0.0000
    12 C12     33.2587  -7.2975   9.5487   C.2       1 RES1   0.0000
    13 C13     33.1320  -6.2152   8.6382   C.2       1 RES1   0.0000
    14 C14     33.3421  -6.4313   7.2654   C.2       1 RES1   0.0000
    15 C15     33.7055  -7.7207   6.8112   C.2       1 RES1   0.0000
    16 Cl16    33.9769  -8.0582   5.1039   Cl        1 RES1   0.0000
    17 C17     33.8029  -8.7906   7.7167   C.2       1 RES1   0.0000
    18 C18     34.7809 -10.7112   9.3930   C.2       1 RES1   0.0000
    19 C19     34.3926 -11.8762   8.7104   C.2       1 RES1   0.0000
    20 C20     35.3901 -12.6610   8.1042   C.2       1 RES1   0.0000
    21 C21     36.7429 -12.2957   8.2076   C.2       1 RES1   0.0000
    22 C22     37.0763 -11.1259   8.9060   C.2       1 RES1   0.0000
    23 N23     36.0931 -10.3805   9.4676   N.2       1 RES1   0.0000
    24 C24     34.4624  -9.4061  13.7125   C.2       1 RES1   0.0000
    25 N25     34.9067  -8.1045  13.6987   N.2       1 RES1   0.0000
    26 C26     35.4593  -7.3339  14.6818   C.2       1 RES1   0.0000
    27 N27     35.7842  -6.0503  14.3568   N.2       1 RES1   0.0000
    28 C28     36.3353  -5.1906  15.2637   C.2       1 RES1   0.0000
    29 C29     36.5642  -5.6316  16.5825   C.2       1 RES1   0.0000
    30 C30     36.2142  -6.9625  16.9022   C.2       1 RES1   0.0000
    31 N31     35.6667  -7.7736  15.9541   N.2       1 RES1   0.0000
    32 C32     34.3095 -10.1562  14.8973   C.2       1 RES1   0.0000
@<TRIPOS>BOND
     1     1     2    1
     2     2     3    2
     3     2     4    2
     4     2     5    1
     5     5     6    2
     6     6     7    1
     7     7     8    2
     8     8     9    1
     9    10     9    1
    10    10    11    1
    11    11    12    2
    12    12    13    1
    13    13    14    2
    14    14    15    1
    15    15    16    1
    16    15    17    2
    17    10    18    1
    18    18    19    2
    19    19    20    1
    20    20    21    2
    21    21    22    1
    22    22    23    2
    23     8    24    1
    24    24    25    1
    25    25    26    1
    26    26    27    2
    27    27    28    1
    28    28    29    2
    29    29    30    1
    30    30    31    2
    31    24    32    2
    32    32     5    1
    33    17    11    1
    34    23    18    1
    35    31    26    1
@<TRIPOS>SUBSTRUCTURE
     1 RES1        1 GROUP             0 ****  ****    0  
@<TRIPOS>MOLECULE
ligand_28
    32    35     1     0     0
SMALL
NO_CHARGES
****
Generated from the CSD

@<TRIPOS>ATOM
     1 C1      37.6532 -16.1931  10.2515   C.3       1 RES1   0.0000
     2 S2      36.2195 -16.0482  11.3391   S.o2      1 RES1   0.0000
     3 O3      35.2814 -17.1308  11.0663   O.2       1 RES1   0.0000
     4 O4      36.6527 -15.7894  12.6901   O.2       1 RES1   0.0000
     5 C5      35.4420 -14.5809  10.7501   C.2       1 RES1   0.0000
     6 C6      35.6860 -13.3781  11.4289   C.2       1 RES1   0.0000
     7 C7      35.1315 -12.2028  10.9367   C.2       1 RES1   0.0000
     8 C8      34.2814 -12.2285   9.8159   C.2       1 RES1   0.0000
     9 N9      33.6613 -11.1040   9.4089   N.2       1 RES1   0.0000
    10 C10     33.9322  -9.7948   9.9839   C.3       1 RES1   0.0000
    11 C11     33.5974  -8.6717   8.9838   C.2       1 RES1   0.0000
    12 C12     33.2041  -7.3915   9.4154   C.2       1 RES1   0.0000
    13 C13     32.9629  -6.3542   8.4763   C.2       1 RES1   0.0000
    14 C14     33.1449  -6.6001   7.1045   C.2       1 RES1   0.0000
    15 C15     33.5945  -7.8719   6.6788   C.2       1 RES1   0.0000
    16 Cl16    33.8365  -8.2454   4.9746   Cl        1 RES1   0.0000
    17 C17     33.8055  -8.8994   7.6137   C.2       1 RES1   0.0000
    18 C18     33.0895  -9.5353  11.2342   C.2       1 RES1   0.0000
    19 C19     33.5961  -8.8826  12.3704   C.2       1 RES1   0.0000
    20 C20     32.7311  -8.6622  13.4574   C.2       1 RES1   0.0000
    21 C21     31.4009  -9.1123  13.4101   C.2       1 RES1   0.0000
    22 C22     30.9480  -9.7641  12.2537   C.2       1 RES1   0.0000
    23 N23     31.7992  -9.9496  11.2152   N.2       1 RES1   0.0000
    24 C24     34.0245 -13.4327   9.1380   C.2       1 RES1   0.0000
    25 N25     33.2605 -13.3857   7.9953   N.2       1 RES1   0.0000
    26 C26     32.7618 -14.3835   7.2069   C.2       1 RES1   0.0000
    27 N27     32.0438 -14.0091   6.1101   N.2       1 RES1   0.0000
    28 C28     31.5058 -14.9231   5.2497   C.2       1 RES1   0.0000
    29 C29     31.7075 -16.2975   5.4876   C.2       1 RES1   0.0000
    30 C30     32.4603 -16.6657   6.6249   C.2       1 RES1   0.0000
    31 N31     32.9728 -15.7075   7.4469   N.2       1 RES1   0.0000
    32 C32     34.6355 -14.6136   9.6090   C.2       1 RES1   0.0000
@<TRIPOS>BOND
     1     1     2    1
     2     2     3    2
     3     2     4    2
     4     2     5    1
     5     5     6    2
     6     6     7    1
     7     7     8    2
     8     8     9    1
     9    10     9    1
    10    10    11    1
    11    11    12    2
    12    12    13    1
    13    13    14    2
    14    14    15    1
    15    15    16    1
    16    15    17    2
    17    10    18    1
    18    18    19    2
    19    19    20    1
    20    20    21    2
    21    21    22    1
    22    22    23    2
    23     8    24    1
    24    24    25    1
    25    25    26    1
    26    26    27    2
    27    27    28    1
    28    28    29    2
    29    29    30    1
    30    30    31    2
    31    24    32    2
    32    32     5    1
    33    17    11    1
    34    23    18    1
    35    31    26    1
@<TRIPOS>SUBSTRUCTURE
     1 RES1        1 GROUP             0 ****  ****    0  
@<TRIPOS>MOLECULE
ligand_29
    32    35     1     0     0
SMALL
NO_CHARGES
****
Generated from the CSD

@<TRIPOS>ATOM
     1 C1      35.1298 -16.5525  12.6873   C.3       1 RES1   0.0000
     2 S2      36.2195 -16.0482  11.3391   S.o2      1 RES1   0.0000
     3 O3      37.5074 -15.6259  11.8769   O.2       1 RES1   0.0000
     4 O4      36.1633 -17.0186  10.2736   O.2       1 RES1   0.0000
     5 C5      35.4420 -14.5809  10.7501   C.2       1 RES1   0.0000
     6 C6      35.6860 -13.3781  11.4289   C.2       1 RES1   0.0000
     7 C7      35.1315 -12.2028  10.9367   C.2       1 RES1   0.0000
     8 C8      34.2814 -12.2285   9.8159   C.2       1 RES1   0.0000
     9 N9      33.6613 -11.1040   9.4089   N.2       1 RES1   0.0000
    10 C10     33.9322  -9.7948   9.9839   C.3       1 RES1   0.0000
    11 C11     33.5974  -8.6717   8.9838   C.2       1 RES1   0.0000
    12 C12     33.2041  -7.3915   9.4154   C.2       1 RES1   0.0000
    13 C13     32.9629  -6.3542   8.4763   C.2       1 RES1   0.0000
    14 C14     33.1449  -6.6001   7.1045   C.2       1 RES1   0.0000
    15 C15     33.5945  -7.8719   6.6788   C.2       1 RES1   0.0000
    16 Cl16    33.8365  -8.2454   4.9746   Cl        1 RES1   0.0000
    17 C17     33.8055  -8.8994   7.6137   C.2       1 RES1   0.0000
    18 C18     33.0895  -9.5353  11.2342   C.2       1 RES1   0.0000
    19 C19     33.5961  -8.8826  12.3704   C.2       1 RES1   0.0000
    20 C20     32.7311  -8.6622  13.4574   C.2       1 RES1   0.0000
    21 C21     31.4009  -9.1123  13.4101   C.2       1 RES1   0.0000
    22 C22     30.9480  -9.7641  12.2537   C.2       1 RES1   0.0000
    23 N23     31.7992  -9.9496  11.2152   N.2       1 RES1   0.0000
    24 C24     34.0245 -13.4327   9.1380   C.2       1 RES1   0.0000
    25 N25     33.2605 -13.3857   7.9953   N.2       1 RES1   0.0000
    26 C26     32.7618 -14.3835   7.2069   C.2       1 RES1   0.0000
    27 N27     32.0438 -14.0091   6.1101   N.2       1 RES1   0.0000
    28 C28     31.5058 -14.9231   5.2497   C.2       1 RES1   0.0000
    29 C29     31.7075 -16.2975   5.4876   C.2       1 RES1   0.0000
    30 C30     32.4603 -16.6657   6.6249   C.2       1 RES1   0.0000
    31 N31     32.9728 -15.7075   7.4469   N.2       1 RES1   0.0000
    32 C32     34.6355 -14.6136   9.6090   C.2       1 RES1   0.0000
@<TRIPOS>BOND
     1     1     2    1
     2     2     3    2
     3     2     4    2
     4     2     5    1
     5     5     6    2
     6     6     7    1
     7     7     8    2
     8     8     9    1
     9    10     9    1
    10    10    11    1
    11    11    12    2
    12    12    13    1
    13    13    14    2
    14    14    15    1
    15    15    16    1
    16    15    17    2
    17    10    18    1
    18    18    19    2
    19    19    20    1
    20    20    21    2
    21    21    22    1
    22    22    23    2
    23     8    24    1
    24    24    25    1
    25    25    26    1
    26    26    27    2
    27    27    28    1
    28    28    29    2
    29    29    30    1
    30    30    31    2
    31    24    32    2
    32    32     5    1
    33    17    11    1
    34    23    18    1
    35    31    26    1
@<TRIPOS>SUBSTRUCTURE
     1 RES1        1 GROUP             0 ****  ****    0  
@<TRIPOS>MOLECULE
ligand_30
    32    35     1     0     0
SMALL
NO_CHARGES
****
Generated from the CSD

@<TRIPOS>ATOM
     1 C1      39.3707  -6.3890  13.6642   C.3       1 RES1   0.0000
     2 S2      38.6260  -7.8272  14.4620   S.o2      1 RES1   0.0000
     3 O3      39.6542  -8.8209  14.7476   O.2       1 RES1   0.0000
     4 O4      37.7246  -7.3988  15.5032   O.2       1 RES1   0.0000
     5 C5      37.6432  -8.5125  13.1702   C.2       1 RES1   0.0000
     6 C6      36.2738  -8.2104  13.1419   C.2       1 RES1   0.0000
     7 C7      35.5000  -8.6909  12.0925   C.2       1 RES1   0.0000
     8 C8      36.0658  -9.5255  11.1113   C.2       1 RES1   0.0000
     9 N9      35.2887 -10.0755  10.1582   N.2       1 RES1   0.0000
    10 C10     33.8557  -9.8384  10.0670   C.3       1 RES1   0.0000
    11 C11     33.5521  -8.6261   9.1661   C.2       1 RES1   0.0000
    12 C12     33.0412  -7.4250   9.6918   C.2       1 RES1   0.0000
    13 C13     32.8298  -6.3000   8.8515   C.2       1 RES1   0.0000
    14 C14     33.1594  -6.3776   7.4874   C.2       1 RES1   0.0000
    15 C15     33.7250  -7.5682   6.9744   C.2       1 RES1   0.0000
    16 Cl16    34.1543  -7.7313   5.2739   Cl        1 RES1   0.0000
    17 C17     33.9062  -8.6844   7.8083   C.2       1 RES1   0.0000
    18 C18     33.1174 -11.0329   9.4596   C.2       1 RES1   0.0000
    19 C19     33.7454 -12.2624   9.1993   C.2       1 RES1   0.0000
    20 C20     32.9714 -13.3108   8.6698   C.2       1 RES1   0.0000
    21 C21     31.6094 -13.1154   8.3851   C.2       1 RES1   0.0000
    22 C22     31.0337 -11.8660   8.6584   C.2       1 RES1   0.0000
    23 N23     31.7998 -10.8782   9.1827   N.2       1 RES1   0.0000
    24 C24     37.4353  -9.8405  11.1405   C.2       1 RES1   0.0000
    25 N25     37.9538 -10.5848  10.1067   N.2       1 RES1   0.0000
    26 C26     39.1740 -11.1791   9.9519   C.2       1 RES1   0.0000
    27 N27     40.0451 -11.0917  10.9970   N.2       1 RES1   0.0000
    28 C28     41.2883 -11.6553  10.9530   C.2       1 RES1   0.0000
    29 C29     41.6849 -12.3638   9.8011   C.2       1 RES1   0.0000
    30 C30     40.7659 -12.4499   8.7317   C.2       1 RES1   0.0000
    31 N31     39.5385 -11.8671   8.8344   N.2       1 RES1   0.0000
    32 C32     38.2273  -9.3036  12.1770   C.2       1 RES1   0.0000
@<TRIPOS>BOND
     1     1     2    1
     2     2     3    2
     3     2     4    2
     4     2     5    1
     5     5     6    2
     6     6     7    1
     7     7     8    2
     8     8     9    1
     9    10     9    1
    10    10    11    1
    11    11    12    2
    12    12    13    1
    13    13    14    2
    14    14    15    1
    15    15    16    1
    16    15    17    2
    17    10    18    1
    18    18    19    2
    19    19    20    1
    20    20    21    2
    21    21    22    1
    22    22    23    2
    23     8    24    1
    24    24    25    1
    25    25    26    1
    26    26    27    2
    27    27    28    1
    28    28    29    2
    29    29    30    1
    30    30    31    2
    31    24    32    2
    32    32     5    1
    33    17    11    1
    34    23    18    1
    35    31    26    1
@<TRIPOS>SUBSTRUCTURE
     1 RES1        1 GROUP             0 ****  ****    0  
@<TRIPOS>MOLECULE
ligand_31
    32    35     1     0     0
SMALL
NO_CHARGES
****
Generated from the CSD

@<TRIPOS>ATOM
     1 C1      38.3161  -8.9621  15.8314   C.3       1 RES1   0.0000
     2 S2      38.6260  -7.8272  14.4620   S.o2      1 RES1   0.0000
     3 O3      38.0400  -6.5250  14.7578   O.2       1 RES1   0.0000
     4 O4      40.0040  -7.9232  14.0473   O.2       1 RES1   0.0000
     5 C5      37.6432  -8.5125  13.1702   C.2       1 RES1   0.0000
     6 C6      36.2738  -8.2104  13.1419   C.2       1 RES1   0.0000
     7 C7      35.5000  -8.6909  12.0925   C.2       1 RES1   0.0000
     8 C8      36.0658  -9.5255  11.1113   C.2       1 RES1   0.0000
     9 N9      35.2887 -10.0755  10.1582   N.2       1 RES1   0.0000
    10 C10     33.8557  -9.8384  10.0670   C.3       1 RES1   0.0000
    11 C11     33.5521  -8.6261   9.1661   C.2       1 RES1   0.0000
    12 C12     33.0412  -7.4250   9.6918   C.2       1 RES1   0.0000
    13 C13     32.8298  -6.3000   8.8515   C.2       1 RES1   0.0000
    14 C14     33.1594  -6.3776   7.4874   C.2       1 RES1   0.0000
    15 C15     33.7250  -7.5682   6.9744   C.2       1 RES1   0.0000
    16 Cl16    34.1543  -7.7313   5.2739   Cl        1 RES1   0.0000
    17 C17     33.9062  -8.6844   7.8083   C.2       1 RES1   0.0000
    18 C18     33.1174 -11.0329   9.4596   C.2       1 RES1   0.0000
    19 C19     33.7454 -12.2624   9.1993   C.2       1 RES1   0.0000
    20 C20     32.9714 -13.3108   8.6698   C.2       1 RES1   0.0000
    21 C21     31.6094 -13.1154   8.3851   C.2       1 RES1   0.0000
    22 C22     31.0337 -11.8660   8.6584   C.2       1 RES1   0.0000
    23 N23     31.7998 -10.8782   9.1827   N.2       1 RES1   0.0000
    24 C24     37.4353  -9.8405  11.1405   C.2       1 RES1   0.0000
    25 N25     37.9538 -10.5848  10.1067   N.2       1 RES1   0.0000
    26 C26     39.1740 -11.1791   9.9519   C.2       1 RES1   0.0000
    27 N27     40.0451 -11.0917  10.9970   N.2       1 RES1   0.0000
    28 C28     41.2883 -11.6553  10.9530   C.2       1 RES1   0.0000
    29 C29     41.6849 -12.3638   9.8011   C.2       1 RES1   0.0000
    30 C30     40.7659 -12.4499   8.7317   C.2       1 RES1   0.0000
    31 N31     39.5385 -11.8671   8.8344   N.2       1 RES1   0.0000
    32 C32     38.2273  -9.3036  12.1770   C.2       1 RES1   0.0000
@<TRIPOS>BOND
     1     1     2    1
     2     2     3    2
     3     2     4    2
     4     2     5    1
     5     5     6    2
     6     6     7    1
     7     7     8    2
     8     8     9    1
     9    10     9    1
    10    10    11    1
    11    11    12    2
    12    12    13    1
    13    13    14    2
    14    14    15    1
    15    15    16    1
    16    15    17    2
    17    10    18    1
    18    18    19    2
    19    19    20    1
    20    20    21    2
    21    21    22    1
    22    22    23    2
    23     8    24    1
    24    24    25    1
    25    25    26    1
    26    26    27    2
    27    27    28    1
    28    28    29    2
    29    29    30    1
    30    30    31    2
    31    24    32    2
    32    32     5    1
    33    17    11    1
    34    23    18    1
    35    31    26    1
@<TRIPOS>SUBSTRUCTURE
     1 RES1        1 GROUP             0 ****  ****    0  
@<TRIPOS>MOLECULE
ligand_32
    32    35     1     0     0
SMALL
NO_CHARGES
****
Generated from the CSD

@<TRIPOS>ATOM
     1 C1      27.9531 -13.1320   7.0125   C.3       1 RES1   0.0000
     2 S2      29.2068 -14.1958   7.7579   S.o2      1 RES1   0.0000
     3 O3      28.5961 -15.0365   8.7810   O.2       1 RES1   0.0000
     4 O4      30.0235 -14.7882   6.7273   O.2       1 RES1   0.0000
     5 C5      30.2171 -13.0425   8.6260   C.2       1 RES1   0.0000
     6 C6      31.4015 -12.6024   8.0169   C.2       1 RES1   0.0000
     7 C7      32.1742 -11.6442   8.6616   C.2       1 RES1   0.0000
     8 C8      31.8117 -11.1739   9.9372   C.2       1 RES1   0.0000
     9 N9      32.6204 -10.3270  10.6030   N.2       1 RES1   0.0000
    10 C10     33.8343  -9.7689  10.0260   C.3       1 RES1   0.0000
    11 C11     33.5076  -8.6104   9.0645   C.2       1 RES1   0.0000
    12 C12     32.9281  -7.4124   9.5216   C.2       1 RES1   0.0000
    13 C13     32.6952  -6.3344   8.6272   C.2       1 RES1   0.0000
    14 C14     33.0719  -6.4544   7.2784   C.2       1 RES1   0.0000
    15 C15     33.7052  -7.6389   6.8351   C.2       1 RES1   0.0000
    16 Cl16    34.1962  -7.8539   5.1573   Cl        1 RES1   0.0000
    17 C17     33.9077  -8.7098   7.7220   C.2       1 RES1   0.0000
    18 C18     34.7665  -9.2006  11.0979   C.2       1 RES1   0.0000
    19 C19     34.3120  -8.3773  12.1417   C.2       1 RES1   0.0000
    20 C20     35.2433  -7.9322  13.0973   C.2       1 RES1   0.0000
    21 C21     36.5989  -8.2847  12.9870   C.2       1 RES1   0.0000
    22 C22     37.0003  -9.1039  11.9216   C.2       1 RES1   0.0000
    23 N23     36.0789  -9.5307  11.0236   N.2       1 RES1   0.0000
    24 C24     30.6315 -11.6194  10.5572   C.2       1 RES1   0.0000
    25 N25     30.2784 -11.0589  11.7625   N.2       1 RES1   0.0000
    26 C26     29.2692 -11.3611  12.6320   C.2       1 RES1   0.0000
    27 N27     29.1667 -10.5958  13.7557   N.2       1 RES1   0.0000
    28 C28     28.1915 -10.8054  14.6885   C.2       1 RES1   0.0000
    29 C29     27.2487 -11.8326  14.4830   C.2       1 RES1   0.0000
    30 C30     27.3666 -12.6099  13.3093   C.2       1 RES1   0.0000
    31 N31     28.3613 -12.3527  12.4142   N.2       1 RES1   0.0000
    32 C32     29.8220 -12.5501   9.8730   C.2       1 RES1   0.0000
@<TRIPOS>BOND
     1     1     2    1
     2     2     3    2
     3     2     4    2
     4     2     5    1
     5     5     6    2
     6     6     7    1
     7     7     8    2
     8     8     9    1
     9    10     9    1
    10    10    11    1
    11    11    12    2
    12    12    13    1
    13    13    14    2
    14    14    15    1
    15    15    16    1
    16    15    17    2
    17    10    18    1
    18    18    19    2
    19    19    20    1
    20    20    21    2
    21    21    22    1
    22    22    23    2
    23     8    24    1
    24    24    25    1
    25    25    26    1
    26    26    27    2
    27    27    28    1
    28    28    29    2
    29    29    30    1
    30    30    31    2
    31    24    32    2
    32    32     5    1
    33    17    11    1
    34    23    18    1
    35    31    26    1
@<TRIPOS>SUBSTRUCTURE
     1 RES1        1 GROUP             0 ****  ****    0  
@<TRIPOS>MOLECULE
ligand_33
    32    35     1     0     0
SMALL
NO_CHARGES
****
Generated from the CSD

@<TRIPOS>ATOM
     1 C1      30.0136 -15.7700   8.1193   C.3       1 RES1   0.0000
     2 S2      29.2068 -14.1958   7.7579   S.o2      1 RES1   0.0000
     3 O3      29.3629 -13.8742   6.3442   O.2       1 RES1   0.0000
     4 O4      27.9002 -14.1628   8.3676   O.2       1 RES1   0.0000
     5 C5      30.2171 -13.0425   8.6260   C.2       1 RES1   0.0000
     6 C6      31.4015 -12.6024   8.0169   C.2       1 RES1   0.0000
     7 C7      32.1742 -11.6442   8.6616   C.2       1 RES1   0.0000
     8 C8      31.8117 -11.1739   9.9372   C.2       1 RES1   0.0000
     9 N9      32.6204 -10.3270  10.6030   N.2       1 RES1   0.0000
    10 C10     33.8343  -9.7689  10.0260   C.3       1 RES1   0.0000
    11 C11     33.5076  -8.6104   9.0645   C.2       1 RES1   0.0000
    12 C12     32.9281  -7.4124   9.5216   C.2       1 RES1   0.0000
    13 C13     32.6952  -6.3344   8.6272   C.2       1 RES1   0.0000
    14 C14     33.0719  -6.4544   7.2784   C.2       1 RES1   0.0000
    15 C15     33.7052  -7.6389   6.8351   C.2       1 RES1   0.0000
    16 Cl16    34.1962  -7.8539   5.1573   Cl        1 RES1   0.0000
    17 C17     33.9077  -8.7098   7.7220   C.2       1 RES1   0.0000
    18 C18     34.7665  -9.2006  11.0979   C.2       1 RES1   0.0000
    19 C19     34.3120  -8.3773  12.1417   C.2       1 RES1   0.0000
    20 C20     35.2433  -7.9322  13.0973   C.2       1 RES1   0.0000
    21 C21     36.5989  -8.2847  12.9870   C.2       1 RES1   0.0000
    22 C22     37.0003  -9.1039  11.9216   C.2       1 RES1   0.0000
    23 N23     36.0789  -9.5307  11.0236   N.2       1 RES1   0.0000
    24 C24     30.6315 -11.6194  10.5572   C.2       1 RES1   0.0000
    25 N25     30.2784 -11.0589  11.7625   N.2       1 RES1   0.0000
    26 C26     29.2692 -11.3611  12.6320   C.2       1 RES1   0.0000
    27 N27     29.1667 -10.5958  13.7557   N.2       1 RES1   0.0000
    28 C28     28.1915 -10.8054  14.6885   C.2       1 RES1   0.0000
    29 C29     27.2487 -11.8326  14.4830   C.2       1 RES1   0.0000
    30 C30     27.3666 -12.6099  13.3093   C.2       1 RES1   0.0000
    31 N31     28.3613 -12.3527  12.4142   N.2       1 RES1   0.0000
    32 C32     29.8220 -12.5501   9.8730   C.2       1 RES1   0.0000
@<TRIPOS>BOND
     1     1     2    1
     2     2     3    2
     3     2     4    2
     4     2     5    1
     5     5     6    2
     6     6     7    1
     7     7     8    2
     8     8     9    1
     9    10     9    1
    10    10    11    1
    11    11    12    2
    12    12    13    1
    13    13    14    2
    14    14    15    1
    15    15    16    1
    16    15    17    2
    17    10    18    1
    18    18    19    2
    19    19    20    1
    20    20    21    2
    21    21    22    1
    22    22    23    2
    23     8    24    1
    24    24    25    1
    25    25    26    1
    26    26    27    2
    27    27    28    1
    28    28    29    2
    29    29    30    1
    30    30    31    2
    31    24    32    2
    32    32     5    1
    33    17    11    1
    34    23    18    1
    35    31    26    1
@<TRIPOS>SUBSTRUCTURE
     1 RES1        1 GROUP             0 ****  ****    0  
@<TRIPOS>MOLECULE
ligand_34
    32    35     1     0     0
SMALL
NO_CHARGES
****
Generated from the CSD

@<TRIPOS>ATOM
     1 C1      41.2445  -9.0093  10.0902   C.3       1 RES1   0.0000
     2 S2      40.5121  -9.9920  11.4158   S.o2      1 RES1   0.0000
     3 O3      41.1033 -11.3249  11.4267   O.2       1 RES1   0.0000
     4 O4      40.4567  -9.2150  12.6295   O.2       1 RES1   0.0000
     5 C5      38.8547 -10.2078  10.8581   C.2       1 RES1   0.0000
     6 C6      37.8635  -9.3556  11.3666   C.2       1 RES1   0.0000
     7 C7      36.5646  -9.4722  10.8868   C.2       1 RES1   0.0000
     8 C8      36.2335 -10.4752   9.9574   C.2       1 RES1   0.0000
     9 N9      34.9532 -10.6526   9.5780   N.2       1 RES1   0.0000
    10 C10     33.8468  -9.8870  10.1328   C.3       1 RES1   0.0000
    11 C11     33.5853  -8.6141   9.3052   C.2       1 RES1   0.0000
    12 C12     33.0857  -7.4389   9.8960   C.2       1 RES1   0.0000
    13 C13     32.9134  -6.2589   9.1251   C.2       1 RES1   0.0000
    14 C14     33.2708  -6.2563   7.7658   C.2       1 RES1   0.0000
    15 C15     33.8251  -7.4231   7.1894   C.2       1 RES1   0.0000
    16 Cl16    34.2878  -7.4865   5.4911   Cl        1 RES1   0.0000
    17 C17     33.9674  -8.5933   7.9539   C.2       1 RES1   0.0000
    18 C18     32.5426 -10.6870  10.1324   C.2       1 RES1   0.0000
    19 C19     31.3798 -10.2454  10.7856   C.2       1 RES1   0.0000
    20 C20     30.2210 -11.0379  10.6986   C.2       1 RES1   0.0000
    21 C21     30.2428 -12.2547   9.9962   C.2       1 RES1   0.0000
    22 C22     31.4322 -12.6516   9.3676   C.2       1 RES1   0.0000
    23 N23     32.5298 -11.8608   9.4552   N.2       1 RES1   0.0000
    24 C24     37.2206 -11.3390   9.4523   C.2       1 RES1   0.0000
    25 N25     36.8595 -12.2406   8.4784   N.2       1 RES1   0.0000
    26 C26     37.5461 -12.7193   7.3989   C.2       1 RES1   0.0000
    27 N27     36.9039 -13.6217   6.6039   N.2       1 RES1   0.0000
    28 C28     37.4932 -14.1591   5.4953   C.2       1 RES1   0.0000
    29 C29     38.7998 -13.7622   5.1469   C.2       1 RES1   0.0000
    30 C30     39.4462 -12.8207   5.9785   C.2       1 RES1   0.0000
    31 N31     38.8062 -12.3190   7.0718   N.2       1 RES1   0.0000
    32 C32     38.5483 -11.1792   9.9010   C.2       1 RES1   0.0000
@<TRIPOS>BOND
     1     1     2    1
     2     2     3    2
     3     2     4    2
     4     2     5    1
     5     5     6    2
     6     6     7    1
     7     7     8    2
     8     8     9    1
     9    10     9    1
    10    10    11    1
    11    11    12    2
    12    12    13    1
    13    13    14    2
    14    14    15    1
    15    15    16    1
    16    15    17    2
    17    10    18    1
    18    18    19    2
    19    19    20    1
    20    20    21    2
    21    21    22    1
    22    22    23    2
    23     8    24    1
    24    24    25    1
    25    25    26    1
    26    26    27    2
    27    27    28    1
    28    28    29    2
    29    29    30    1
    30    30    31    2
    31    24    32    2
    32    32     5    1
    33    17    11    1
    34    23    18    1
    35    31    26    1
@<TRIPOS>SUBSTRUCTURE
     1 RES1        1 GROUP             0 ****  ****    0  
@<TRIPOS>MOLECULE
ligand_35
    32    35     1     0     0
SMALL
NO_CHARGES
****
Generated from the CSD

@<TRIPOS>ATOM
     1 C1      40.5129 -10.8793  12.9881   C.3       1 RES1   0.0000
     2 S2      40.5121  -9.9920  11.4158   S.o2      1 RES1   0.0000
     3 O3      40.6666  -8.5620  11.6558   O.2       1 RES1   0.0000
     4 O4      41.3712 -10.6644  10.4725   O.2       1 RES1   0.0000
     5 C5      38.8547 -10.2078  10.8581   C.2       1 RES1   0.0000
     6 C6      37.8635  -9.3556  11.3666   C.2       1 RES1   0.0000
     7 C7      36.5646  -9.4722  10.8868   C.2       1 RES1   0.0000
     8 C8      36.2335 -10.4752   9.9574   C.2       1 RES1   0.0000
     9 N9      34.9532 -10.6526   9.5780   N.2       1 RES1   0.0000
    10 C10     33.8468  -9.8870  10.1328   C.3       1 RES1   0.0000
    11 C11     33.5853  -8.6141   9.3052   C.2       1 RES1   0.0000
    12 C12     33.0857  -7.4389   9.8960   C.2       1 RES1   0.0000
    13 C13     32.9134  -6.2589   9.1251   C.2       1 RES1   0.0000
    14 C14     33.2708  -6.2563   7.7658   C.2       1 RES1   0.0000
    15 C15     33.8251  -7.4231   7.1894   C.2       1 RES1   0.0000
    16 Cl16    34.2878  -7.4865   5.4911   Cl        1 RES1   0.0000
    17 C17     33.9674  -8.5933   7.9539   C.2       1 RES1   0.0000
    18 C18     32.5426 -10.6870  10.1324   C.2       1 RES1   0.0000
    19 C19     31.3798 -10.2454  10.7856   C.2       1 RES1   0.0000
    20 C20     30.2210 -11.0379  10.6986   C.2       1 RES1   0.0000
    21 C21     30.2428 -12.2547   9.9962   C.2       1 RES1   0.0000
    22 C22     31.4322 -12.6516   9.3676   C.2       1 RES1   0.0000
    23 N23     32.5298 -11.8608   9.4552   N.2       1 RES1   0.0000
    24 C24     37.2206 -11.3390   9.4523   C.2       1 RES1   0.0000
    25 N25     36.8595 -12.2406   8.4784   N.2       1 RES1   0.0000
    26 C26     37.5461 -12.7193   7.3989   C.2       1 RES1   0.0000
    27 N27     36.9039 -13.6217   6.6039   N.2       1 RES1   0.0000
    28 C28     37.4932 -14.1591   5.4953   C.2       1 RES1   0.0000
    29 C29     38.7998 -13.7622   5.1469   C.2       1 RES1   0.0000
    30 C30     39.4462 -12.8207   5.9785   C.2       1 RES1   0.0000
    31 N31     38.8062 -12.3190   7.0718   N.2       1 RES1   0.0000
    32 C32     38.5483 -11.1792   9.9010   C.2       1 RES1   0.0000
@<TRIPOS>BOND
     1     1     2    1
     2     2     3    2
     3     2     4    2
     4     2     5    1
     5     5     6    2
     6     6     7    1
     7     7     8    2
     8     8     9    1
     9    10     9    1
    10    10    11    1
    11    11    12    2
    12    12    13    1
    13    13    14    2
    14    14    15    1
    15    15    16    1
    16    15    17    2
    17    10    18    1
    18    18    19    2
    19    19    20    1
    20    20    21    2
    21    21    22    1
    22    22    23    2
    23     8    24    1
    24    24    25    1
    25    25    26    1
    26    26    27    2
    27    27    28    1
    28    28    29    2
    29    29    30    1
    30    30    31    2
    31    24    32    2
    32    32     5    1
    33    17    11    1
    34    23    18    1
    35    31    26    1
@<TRIPOS>SUBSTRUCTURE
     1 RES1        1 GROUP             0 ****  ****    0  
@<TRIPOS>MOLECULE
ligand_36
    32    35     1     0     0
SMALL
NO_CHARGES
****
Generated from the CSD

@<TRIPOS>ATOM
     1 C1      40.7764  -8.6819   7.3985   C.3       1 RES1   0.0000
     2 S2      40.4953  -8.6920   9.1818   S.o2      1 RES1   0.0000
     3 O3      41.3362  -9.7052   9.8085   O.2       1 RES1   0.0000
     4 O4      40.4928  -7.3408   9.6859   O.2       1 RES1   0.0000
     5 C5      38.8450  -9.2974   9.3033   C.2       1 RES1   0.0000
     6 C6      37.8043  -8.3703   9.4600   C.2       1 RES1   0.0000
     7 C7      36.4930  -8.8293   9.4917   C.2       1 RES1   0.0000
     8 C8      36.2170 -10.2078   9.4382   C.2       1 RES1   0.0000
     9 N9      34.9532 -10.6526   9.5780   N.2       1 RES1   0.0000
    10 C10     33.8555  -9.8025  10.0143   C.3       1 RES1   0.0000
    11 C11     33.4710  -8.7901   8.9185   C.2       1 RES1   0.0000
    12 C12     32.9596  -7.5180   9.2350   C.2       1 RES1   0.0000
    13 C13     32.6728  -6.5784   8.2098   C.2       1 RES1   0.0000
    14 C14     32.9275  -6.9115   6.8683   C.2       1 RES1   0.0000
    15 C15     33.4940  -8.1701   6.5589   C.2       1 RES1   0.0000
    16 Cl16    33.8318  -8.6501   4.8982   Cl        1 RES1   0.0000
    17 C17     33.7501  -9.1027   7.5781   C.2       1 RES1   0.0000
    18 C18     32.5955 -10.6126  10.3257   C.2       1 RES1   0.0000
    19 C19     31.7528 -10.3203  11.4111   C.2       1 RES1   0.0000
    20 C20     30.5994 -11.1045  11.5935   C.2       1 RES1   0.0000
    21 C21     30.3193 -12.1705  10.7219   C.2       1 RES1   0.0000
    22 C22     31.1974 -12.4229   9.6578   C.2       1 RES1   0.0000
    23 N23     32.2935 -11.6417   9.4970   N.2       1 RES1   0.0000
    24 C24     37.2568 -11.1423   9.2920   C.2       1 RES1   0.0000
    25 N25     36.9238 -12.4695   9.1532   N.2       1 RES1   0.0000
    26 C26     37.7051 -13.5850   9.0469   C.2       1 RES1   0.0000
    27 N27     37.0656 -14.7808   8.9064   N.2       1 RES1   0.0000
    28 C28     37.7482 -15.9574   8.7845   C.2       1 RES1   0.0000
    29 C29     39.1574 -15.9418   8.7879   C.2       1 RES1   0.0000
    30 C30     39.8020 -14.6925   8.9271   C.2       1 RES1   0.0000
    31 N31     39.0667 -13.5514   9.0441   N.2       1 RES1   0.0000
    32 C32     38.5817 -10.6664   9.2038   C.2       1 RES1   0.0000
@<TRIPOS>BOND
     1     1     2    1
     2     2     3    2
     3     2     4    2
     4     2     5    1
     5     5     6    2
     6     6     7    1
     7     7     8    2
     8     8     9    1
     9    10     9    1
    10    10    11    1
    11    11    12    2
    12    12    13    1
    13    13    14    2
    14    14    15    1
    15    15    16    1
    16    15    17    2
    17    10    18    1
    18    18    19    2
    19    19    20    1
    20    20    21    2
    21    21    22    1
    22    22    23    2
    23     8    24    1
    24    24    25    1
    25    25    26    1
    26    26    27    2
    27    27    28    1
    28    28    29    2
    29    29    30    1
    30    30    31    2
    31    24    32    2
    32    32     5    1
    33    17    11    1
    34    23    18    1
    35    31    26    1
@<TRIPOS>SUBSTRUCTURE
     1 RES1        1 GROUP             0 ****  ****    0  
@<TRIPOS>MOLECULE
ligand_37
    32    35     1     0     0
SMALL
NO_CHARGES
****
Generated from the CSD

@<TRIPOS>ATOM
     1 C1      40.9442  -8.4344  10.9114   C.3       1 RES1   0.0000
     2 S2      40.4953  -8.6920   9.1818   S.o2      1 RES1   0.0000
     3 O3      40.3968  -7.4066   8.5005   O.2       1 RES1   0.0000
     4 O4      41.2979  -9.7498   8.6189   O.2       1 RES1   0.0000
     5 C5      38.8450  -9.2974   9.3033   C.2       1 RES1   0.0000
     6 C6      37.8043  -8.3703   9.4600   C.2       1 RES1   0.0000
     7 C7      36.4930  -8.8293   9.4917   C.2       1 RES1   0.0000
     8 C8      36.2170 -10.2078   9.4382   C.2       1 RES1   0.0000
     9 N9      34.9532 -10.6526   9.5780   N.2       1 RES1   0.0000
    10 C10     33.8555  -9.8025  10.0143   C.3       1 RES1   0.0000
    11 C11     33.4710  -8.7901   8.9185   C.2       1 RES1   0.0000
    12 C12     32.9596  -7.5180   9.2350   C.2       1 RES1   0.0000
    13 C13     32.6728  -6.5784   8.2098   C.2       1 RES1   0.0000
    14 C14     32.9275  -6.9115   6.8683   C.2       1 RES1   0.0000
    15 C15     33.4940  -8.1701   6.5589   C.2       1 RES1   0.0000
    16 Cl16    33.8318  -8.6501   4.8982   Cl        1 RES1   0.0000
    17 C17     33.7501  -9.1027   7.5781   C.2       1 RES1   0.0000
    18 C18     32.5955 -10.6126  10.3257   C.2       1 RES1   0.0000
    19 C19     31.7528 -10.3203  11.4111   C.2       1 RES1   0.0000
    20 C20     30.5994 -11.1045  11.5935   C.2       1 RES1   0.0000
    21 C21     30.3193 -12.1705  10.7219   C.2       1 RES1   0.0000
    22 C22     31.1974 -12.4229   9.6578   C.2       1 RES1   0.0000
    23 N23     32.2935 -11.6417   9.4970   N.2       1 RES1   0.0000
    24 C24     37.2568 -11.1423   9.2920   C.2       1 RES1   0.0000
    25 N25     36.9238 -12.4695   9.1532   N.2       1 RES1   0.0000
    26 C26     37.7051 -13.5850   9.0469   C.2       1 RES1   0.0000
    27 N27     37.0656 -14.7808   8.9064   N.2       1 RES1   0.0000
    28 C28     37.7482 -15.9574   8.7845   C.2       1 RES1   0.0000
    29 C29     39.1574 -15.9418   8.7879   C.2       1 RES1   0.0000
    30 C30     39.8020 -14.6925   8.9271   C.2       1 RES1   0.0000
    31 N31     39.0667 -13.5514   9.0441   N.2       1 RES1   0.0000
    32 C32     38.5817 -10.6664   9.2038   C.2       1 RES1   0.0000
@<TRIPOS>BOND
     1     1     2    1
     2     2     3    2
     3     2     4    2
     4     2     5    1
     5     5     6    2
     6     6     7    1
     7     7     8    2
     8     8     9    1
     9    10     9    1
    10    10    11    1
    11    11    12    2
    12    12    13    1
    13    13    14    2
    14    14    15    1
    15    15    16    1
    16    15    17    2
    17    10    18    1
    18    18    19    2
    19    19    20    1
    20    20    21    2
    21    21    22    1
    22    22    23    2
    23     8    24    1
    24    24    25    1
    25    25    26    1
    26    26    27    2
    27    27    28    1
    28    28    29    2
    29    29    30    1
    30    30    31    2
    31    24    32    2
    32    32     5    1
    33    17    11    1
    34    23    18    1
    35    31    26    1
@<TRIPOS>SUBSTRUCTURE
     1 RES1        1 GROUP             0 ****  ****    0  
@<TRIPOS>MOLECULE
ligand_38
    32    35     1     0     0
SMALL
NO_CHARGES
****
Generated from the CSD

@<TRIPOS>ATOM
     1 C1      28.6147 -14.3350   7.3729   C.3       1 RES1   0.0000
     2 S2      29.8746 -15.0690   8.4376   S.o2      1 RES1   0.0000
     3 O3      29.2389 -15.7302   9.5712   O.2       1 RES1   0.0000
     4 O4      30.8423 -15.7771   7.6363   O.2       1 RES1   0.0000
     5 C5      30.6838 -13.6518   9.1018   C.2       1 RES1   0.0000
     6 C6      31.8808 -13.2270   8.5068   C.2       1 RES1   0.0000
     7 C7      32.4949 -12.0734   8.9791   C.2       1 RES1   0.0000
     8 C8      31.9629 -11.3810  10.0823   C.2       1 RES1   0.0000
     9 N9      32.6204 -10.3270  10.6030   N.2       1 RES1   0.0000
    10 C10     33.9181  -9.8814  10.1177   C.3       1 RES1   0.0000
    11 C11     33.7602  -8.8311   9.0017   C.2       1 RES1   0.0000
    12 C12     33.2642  -7.5412   9.2663   C.2       1 RES1   0.0000
    13 C13     33.1880  -6.5698   8.2335   C.2       1 RES1   0.0000
    14 C14     33.6375  -6.8904   6.9409   C.2       1 RES1   0.0000
    15 C15     34.1874  -8.1697   6.6924   C.2       1 RES1   0.0000
    16 Cl16    34.7628  -8.6354   5.0941   Cl        1 RES1   0.0000
    17 C17     34.2345  -9.1326   7.7146   C.2       1 RES1   0.0000
    18 C18     34.7465  -9.2255  11.2242   C.2       1 RES1   0.0000
    19 C19     36.0999  -8.8858  11.0607   C.2       1 RES1   0.0000
    20 C20     36.7656  -8.2556  12.1275   C.2       1 RES1   0.0000
    21 C21     36.0928  -8.0009  13.3344   C.2       1 RES1   0.0000
    22 C22     34.7433  -8.3663  13.4467   C.2       1 RES1   0.0000
    23 N23     34.1224  -8.9586  12.3973   N.2       1 RES1   0.0000
    24 C24     30.7694 -11.8083  10.6895   C.2       1 RES1   0.0000
    25 N25     30.2458 -11.0425  11.7049   N.2       1 RES1   0.0000
    26 C26     28.9522 -10.7700  12.0486   C.2       1 RES1   0.0000
    27 N27     28.7529  -9.9607  13.1275   N.2       1 RES1   0.0000
    28 C28     27.5018  -9.6175  13.5545   C.2       1 RES1   0.0000
    29 C29     26.3772 -10.0984  12.8545   C.2       1 RES1   0.0000
    30 C30     26.6039 -10.9295  11.7348   C.2       1 RES1   0.0000
    31 N31     27.8762 -11.2368  11.3561   N.2       1 RES1   0.0000
    32 C32     30.1204 -12.9478  10.1697   C.2       1 RES1   0.0000
@<TRIPOS>BOND
     1     1     2    1
     2     2     3    2
     3     2     4    2
     4     2     5    1
     5     5     6    2
     6     6     7    1
     7     7     8    2
     8     8     9    1
     9    10     9    1
    10    10    11    1
    11    11    12    2
    12    12    13    1
    13    13    14    2
    14    14    15    1
    15    15    16    1
    16    15    17    2
    17    10    18    1
    18    18    19    2
    19    19    20    1
    20    20    21    2
    21    21    22    1
    22    22    23    2
    23     8    24    1
    24    24    25    1
    25    25    26    1
    26    26    27    2
    27    27    28    1
    28    28    29    2
    29    29    30    1
    30    30    31    2
    31    24    32    2
    32    32     5    1
    33    17    11    1
    34    23    18    1
    35    31    26    1
@<TRIPOS>SUBSTRUCTURE
     1 RES1        1 GROUP             0 ****  ****    0  
@<TRIPOS>MOLECULE
ligand_39
    32    35     1     0     0
SMALL
NO_CHARGES
****
Generated from the CSD

@<TRIPOS>ATOM
     1 C1      30.7764 -16.4298   9.2084   C.3       1 RES1   0.0000
     2 S2      29.8746 -15.0690   8.4376   S.o2      1 RES1   0.0000
     3 O3      30.1461 -15.0454   7.0051   O.2       1 RES1   0.0000
     4 O4      28.5144 -15.0480   8.9167   O.2       1 RES1   0.0000
     5 C5      30.6838 -13.6518   9.1018   C.2       1 RES1   0.0000
     6 C6      31.8808 -13.2270   8.5068   C.2       1 RES1   0.0000
     7 C7      32.4949 -12.0734   8.9791   C.2       1 RES1   0.0000
     8 C8      31.9629 -11.3810  10.0823   C.2       1 RES1   0.0000
     9 N9      32.6204 -10.3270  10.6030   N.2       1 RES1   0.0000
    10 C10     33.9181  -9.8814  10.1177   C.3       1 RES1   0.0000
    11 C11     33.7602  -8.8311   9.0017   C.2       1 RES1   0.0000
    12 C12     33.2642  -7.5412   9.2663   C.2       1 RES1   0.0000
    13 C13     33.1880  -6.5698   8.2335   C.2       1 RES1   0.0000
    14 C14     33.6375  -6.8904   6.9409   C.2       1 RES1   0.0000
    15 C15     34.1874  -8.1697   6.6924   C.2       1 RES1   0.0000
    16 Cl16    34.7628  -8.6354   5.0941   Cl        1 RES1   0.0000
    17 C17     34.2345  -9.1326   7.7146   C.2       1 RES1   0.0000
    18 C18     34.7465  -9.2255  11.2242   C.2       1 RES1   0.0000
    19 C19     36.0999  -8.8858  11.0607   C.2       1 RES1   0.0000
    20 C20     36.7656  -8.2556  12.1275   C.2       1 RES1   0.0000
    21 C21     36.0928  -8.0009  13.3344   C.2       1 RES1   0.0000
    22 C22     34.7433  -8.3663  13.4467   C.2       1 RES1   0.0000
    23 N23     34.1224  -8.9586  12.3973   N.2       1 RES1   0.0000
    24 C24     30.7694 -11.8083  10.6895   C.2       1 RES1   0.0000
    25 N25     30.2458 -11.0425  11.7049   N.2       1 RES1   0.0000
    26 C26     28.9522 -10.7700  12.0486   C.2       1 RES1   0.0000
    27 N27     28.7529  -9.9607  13.1275   N.2       1 RES1   0.0000
    28 C28     27.5018  -9.6175  13.5545   C.2       1 RES1   0.0000
    29 C29     26.3772 -10.0984  12.8545   C.2       1 RES1   0.0000
    30 C30     26.6039 -10.9295  11.7348   C.2       1 RES1   0.0000
    31 N31     27.8762 -11.2368  11.3561   N.2       1 RES1   0.0000
    32 C32     30.1204 -12.9478  10.1697   C.2       1 RES1   0.0000
@<TRIPOS>BOND
     1     1     2    1
     2     2     3    2
     3     2     4    2
     4     2     5    1
     5     5     6    2
     6     6     7    1
     7     7     8    2
     8     8     9    1
     9    10     9    1
    10    10    11    1
    11    11    12    2
    12    12    13    1
    13    13    14    2
    14    14    15    1
    15    15    16    1
    16    15    17    2
    17    10    18    1
    18    18    19    2
    19    19    20    1
    20    20    21    2
    21    21    22    1
    22    22    23    2
    23     8    24    1
    24    24    25    1
    25    25    26    1
    26    26    27    2
    27    27    28    1
    28    28    29    2
    29    29    30    1
    30    30    31    2
    31    24    32    2
    32    32     5    1
    33    17    11    1
    34    23    18    1
    35    31    26    1
@<TRIPOS>SUBSTRUCTURE
     1 RES1        1 GROUP             0 ****  ****    0  
@<TRIPOS>MOLECULE
ligand_40
    32    35     1     0     0
SMALL
NO_CHARGES
****
Generated from the CSD

@<TRIPOS>ATOM
     1 C1      28.8768 -14.4184  13.2104   C.3       1 RES1   0.0000
     2 S2      30.6278 -14.5836  13.6182   S.o2      1 RES1   0.0000
     3 O3      30.8141 -14.4499  15.0583   O.2       1 RES1   0.0000
     4 O4      31.1904 -15.7116  12.9174   O.2       1 RES1   0.0000
     5 C5      31.3227 -13.1285  12.9081   C.2       1 RES1   0.0000
     6 C6      31.9286 -13.2256  11.6469   C.2       1 RES1   0.0000
     7 C7      32.4226 -12.0736  11.0470   C.2       1 RES1   0.0000
     8 C8      32.3792 -10.8407  11.7235   C.2       1 RES1   0.0000
     9 N9      32.9559  -9.7498  11.1832   N.2       1 RES1   0.0000
    10 C10     34.0270  -9.8217  10.2006   C.3       1 RES1   0.0000
    11 C11     33.8140  -8.7923   9.0743   C.2       1 RES1   0.0000
    12 C12     33.1983  -7.5504   9.3156   C.2       1 RES1   0.0000
    13 C13     33.0709  -6.5922   8.2755   C.2       1 RES1   0.0000
    14 C14     33.5887  -6.8754   7.0000   C.2       1 RES1   0.0000
    15 C15     34.2566  -8.1021   6.7764   C.2       1 RES1   0.0000
    16 Cl16    34.9225  -8.5196   5.2000   Cl        1 RES1   0.0000
    17 C17     34.3547  -9.0543   7.8049   C.2       1 RES1   0.0000
    18 C18     35.3920  -9.5177  10.8213   C.2       1 RES1   0.0000
    19 C19     36.5596 -10.2150  10.4689   C.2       1 RES1   0.0000
    20 C20     37.7727  -9.8378  11.0727   C.2       1 RES1   0.0000
    21 C21     37.8020  -8.8054  12.0253   C.2       1 RES1   0.0000
    22 C22     36.6061  -8.1461  12.3453   C.2       1 RES1   0.0000
    23 N23     35.4540  -8.5203  11.7368   N.2       1 RES1   0.0000
    24 C24     31.7828 -10.7394  12.9922   C.2       1 RES1   0.0000
    25 N25     31.6860  -9.4941  13.5680   N.2       1 RES1   0.0000
    26 C26     31.1704  -9.0978  14.7692   C.2       1 RES1   0.0000
    27 N27     31.2172  -7.7660  15.0568   N.2       1 RES1   0.0000
    28 C28     30.7243  -7.2594  16.2254   C.2       1 RES1   0.0000
    29 C29     30.1336  -8.1318  17.1614   C.2       1 RES1   0.0000
    30 C30     30.0876  -9.5072  16.8424   C.2       1 RES1   0.0000
    31 N31     30.5957  -9.9535  15.6595   N.2       1 RES1   0.0000
    32 C32     31.2327 -11.9018  13.5719   C.2       1 RES1   0.0000
@<TRIPOS>BOND
     1     1     2    1
     2     2     3    2
     3     2     4    2
     4     2     5    1
     5     5     6    2
     6     6     7    1
     7     7     8    2
     8     8     9    1
     9    10     9    1
    10    10    11    1
    11    11    12    2
    12    12    13    1
    13    13    14    2
    14    14    15    1
    15    15    16    1
    16    15    17    2
    17    10    18    1
    18    18    19    2
    19    19    20    1
    20    20    21    2
    21    21    22    1
    22    22    23    2
    23     8    24    1
    24    24    25    1
    25    25    26    1
    26    26    27    2
    27    27    28    1
    28    28    29    2
    29    29    30    1
    30    30    31    2
    31    24    32    2
    32    32     5    1
    33    17    11    1
    34    23    18    1
    35    31    26    1
@<TRIPOS>SUBSTRUCTURE
     1 RES1        1 GROUP             0 ****  ****    0  
@<TRIPOS>MOLECULE
ligand_41
    32    35     1     0     0
SMALL
NO_CHARGES
****
Generated from the CSD

@<TRIPOS>ATOM
     1 C1      32.0713 -15.3926  14.3401   C.3       1 RES1   0.0000
     2 S2      30.6278 -14.5836  13.6182   S.o2      1 RES1   0.0000
     3 O3      30.1288 -15.3721  12.4977   O.2       1 RES1   0.0000
     4 O4      29.7281 -14.1613  14.6633   O.2       1 RES1   0.0000
     5 C5      31.3227 -13.1285  12.9081   C.2       1 RES1   0.0000
     6 C6      31.9286 -13.2256  11.6469   C.2       1 RES1   0.0000
     7 C7      32.4226 -12.0736  11.0470   C.2       1 RES1   0.0000
     8 C8      32.3792 -10.8407  11.7235   C.2       1 RES1   0.0000
     9 N9      32.9559  -9.7498  11.1832   N.2       1 RES1   0.0000
    10 C10     34.0270  -9.8217  10.2006   C.3       1 RES1   0.0000
    11 C11     33.8140  -8.7923   9.0743   C.2       1 RES1   0.0000
    12 C12     33.1983  -7.5504   9.3156   C.2       1 RES1   0.0000
    13 C13     33.0709  -6.5922   8.2755   C.2       1 RES1   0.0000
    14 C14     33.5887  -6.8754   7.0000   C.2       1 RES1   0.0000
    15 C15     34.2566  -8.1021   6.7764   C.2       1 RES1   0.0000
    16 Cl16    34.9225  -8.5196   5.2000   Cl        1 RES1   0.0000
    17 C17     34.3547  -9.0543   7.8049   C.2       1 RES1   0.0000
    18 C18     35.3920  -9.5177  10.8213   C.2       1 RES1   0.0000
    19 C19     36.5596 -10.2150  10.4689   C.2       1 RES1   0.0000
    20 C20     37.7727  -9.8378  11.0727   C.2       1 RES1   0.0000
    21 C21     37.8020  -8.8054  12.0253   C.2       1 RES1   0.0000
    22 C22     36.6061  -8.1461  12.3453   C.2       1 RES1   0.0000
    23 N23     35.4540  -8.5203  11.7368   N.2       1 RES1   0.0000
    24 C24     31.7828 -10.7394  12.9922   C.2       1 RES1   0.0000
    25 N25     31.6860  -9.4941  13.5680   N.2       1 RES1   0.0000
    26 C26     31.1704  -9.0978  14.7692   C.2       1 RES1   0.0000
    27 N27     31.2172  -7.7660  15.0568   N.2       1 RES1   0.0000
    28 C28     30.7243  -7.2594  16.2254   C.2       1 RES1   0.0000
    29 C29     30.1336  -8.1318  17.1614   C.2       1 RES1   0.0000
    30 C30     30.0876  -9.5072  16.8424   C.2       1 RES1   0.0000
    31 N31     30.5957  -9.9535  15.6595   N.2       1 RES1   0.0000
    32 C32     31.2327 -11.9018  13.5719   C.2       1 RES1   0.0000
@<TRIPOS>BOND
     1     1     2    1
     2     2     3    2
     3     2     4    2
     4     2     5    1
     5     5     6    2
     6     6     7    1
     7     7     8    2
     8     8     9    1
     9    10     9    1
    10    10    11    1
    11    11    12    2
    12    12    13    1
    13    13    14    2
    14    14    15    1
    15    15    16    1
    16    15    17    2
    17    10    18    1
    18    18    19    2
    19    19    20    1
    20    20    21    2
    21    21    22    1
    22    22    23    2
    23     8    24    1
    24    24    25    1
    25    25    26    1
    26    26    27    2
    27    27    28    1
    28    28    29    2
    29    29    30    1
    30    30    31    2
    31    24    32    2
    32    32     5    1
    33    17    11    1
    34    23    18    1
    35    31    26    1
@<TRIPOS>SUBSTRUCTURE
     1 RES1        1 GROUP             0 ****  ****    0  
@<TRIPOS>MOLECULE
ligand_42
    32    35     1     0     0
SMALL
NO_CHARGES
****
Generated from the CSD

@<TRIPOS>ATOM
     1 C1      40.4725 -12.0562  12.7577   C.3       1 RES1   0.0000
     2 S2      38.9679 -12.9294  13.2405   S.o2      1 RES1   0.0000
     3 O3      39.0848 -14.3417  12.8968   O.2       1 RES1   0.0000
     4 O4      38.5801 -12.5388  14.5735   O.2       1 RES1   0.0000
     5 C5      37.7701 -12.2644  12.1325   C.2       1 RES1   0.0000
     6 C6      36.9416 -11.2288  12.5889   C.2       1 RES1   0.0000
     7 C7      36.0374 -10.6513  11.7058   C.2       1 RES1   0.0000
     8 C8      35.9052 -11.1440  10.3946   C.2       1 RES1   0.0000
     9 N9      34.9532 -10.6526   9.5780   N.2       1 RES1   0.0000
    10 C10     33.7421 -10.0099  10.0661   C.3       1 RES1   0.0000
    11 C11     33.4439  -8.7207   9.2772   C.2       1 RES1   0.0000
    12 C12     32.8632  -7.5962   9.8922   C.2       1 RES1   0.0000
    13 C13     32.6569  -6.3973   9.1598   C.2       1 RES1   0.0000
    14 C14     33.0612  -6.3236   7.8157   C.2       1 RES1   0.0000
    15 C15     33.6955  -7.4374   7.2174   C.2       1 RES1   0.0000
    16 Cl16    34.2204  -7.4109   5.5363   Cl        1 RES1   0.0000
    17 C17     33.8717  -8.6278   7.9427   C.2       1 RES1   0.0000
    18 C18     32.5160 -10.9123   9.9130   C.2       1 RES1   0.0000
    19 C19     31.5052 -10.9928  10.8854   C.2       1 RES1   0.0000
    20 C20     30.4011 -11.8277  10.6359   C.2       1 RES1   0.0000
    21 C21     30.3324 -12.5809   9.4518   C.2       1 RES1   0.0000
    22 C22     31.3721 -12.4680   8.5170   C.2       1 RES1   0.0000
    23 N23     32.4168 -11.6443   8.7767   N.2       1 RES1   0.0000
    24 C24     36.7254 -12.1888   9.9349   C.2       1 RES1   0.0000
    25 N25     36.6171 -12.5695   8.6177   N.2       1 RES1   0.0000
    26 C26     37.2685 -13.5364   7.9060   C.2       1 RES1   0.0000
    27 N27     36.9371 -13.6694   6.5902   N.2       1 RES1   0.0000
    28 C28     37.5306 -14.5983   5.7839   C.2       1 RES1   0.0000
    29 C29     38.5282 -15.4389   6.3170   C.2       1 RES1   0.0000
    30 C30     38.8632 -15.2811   7.6804   C.2       1 RES1   0.0000
    31 N31     38.2363 -14.3355   8.4349   N.2       1 RES1   0.0000
    32 C32     37.6803 -12.7333  10.8189   C.2       1 RES1   0.0000
@<TRIPOS>BOND
     1     1     2    1
     2     2     3    2
     3     2     4    2
     4     2     5    1
     5     5     6    2
     6     6     7    1
     7     7     8    2
     8     8     9    1
     9    10     9    1
    10    10    11    1
    11    11    12    2
    12    12    13    1
    13    13    14    2
    14    14    15    1
    15    15    16    1
    16    15    17    2
    17    10    18    1
    18    18    19    2
    19    19    20    1
    20    20    21    2
    21    21    22    1
    22    22    23    2
    23     8    24    1
    24    24    25    1
    25    25    26    1
    26    26    27    2
    27    27    28    1
    28    28    29    2
    29    29    30    1
    30    30    31    2
    31    24    32    2
    32    32     5    1
    33    17    11    1
    34    23    18    1
    35    31    26    1
@<TRIPOS>SUBSTRUCTURE
     1 RES1        1 GROUP             0 ****  ****    0  
@<TRIPOS>MOLECULE
ligand_43
    32    35     1     0     0
SMALL
NO_CHARGES
****
Generated from the CSD

@<TRIPOS>ATOM
     1 C1      37.9931 -14.0968  14.2133   C.3       1 RES1   0.0000
     2 S2      38.9679 -12.9294  13.2405   S.o2      1 RES1   0.0000
     3 O3      39.3899 -11.8163  14.0827   O.2       1 RES1   0.0000
     4 O4      39.9365 -13.6425  12.4447   O.2       1 RES1   0.0000
     5 C5      37.7701 -12.2644  12.1325   C.2       1 RES1   0.0000
     6 C6      36.9416 -11.2288  12.5889   C.2       1 RES1   0.0000
     7 C7      36.0374 -10.6513  11.7058   C.2       1 RES1   0.0000
     8 C8      35.9052 -11.1440  10.3946   C.2       1 RES1   0.0000
     9 N9      34.9532 -10.6526   9.5780   N.2       1 RES1   0.0000
    10 C10     33.7421 -10.0099  10.0661   C.3       1 RES1   0.0000
    11 C11     33.4439  -8.7207   9.2772   C.2       1 RES1   0.0000
    12 C12     32.8632  -7.5962   9.8922   C.2       1 RES1   0.0000
    13 C13     32.6569  -6.3973   9.1598   C.2       1 RES1   0.0000
    14 C14     33.0612  -6.3236   7.8157   C.2       1 RES1   0.0000
    15 C15     33.6955  -7.4374   7.2174   C.2       1 RES1   0.0000
    16 Cl16    34.2204  -7.4109   5.5363   Cl        1 RES1   0.0000
    17 C17     33.8717  -8.6278   7.9427   C.2       1 RES1   0.0000
    18 C18     32.5160 -10.9123   9.9130   C.2       1 RES1   0.0000
    19 C19     31.5052 -10.9928  10.8854   C.2       1 RES1   0.0000
    20 C20     30.4011 -11.8277  10.6359   C.2       1 RES1   0.0000
    21 C21     30.3324 -12.5809   9.4518   C.2       1 RES1   0.0000
    22 C22     31.3721 -12.4680   8.5170   C.2       1 RES1   0.0000
    23 N23     32.4168 -11.6443   8.7767   N.2       1 RES1   0.0000
    24 C24     36.7254 -12.1888   9.9349   C.2       1 RES1   0.0000
    25 N25     36.6171 -12.5695   8.6177   N.2       1 RES1   0.0000
    26 C26     37.2685 -13.5364   7.9060   C.2       1 RES1   0.0000
    27 N27     36.9371 -13.6694   6.5902   N.2       1 RES1   0.0000
    28 C28     37.5306 -14.5983   5.7839   C.2       1 RES1   0.0000
    29 C29     38.5282 -15.4389   6.3170   C.2       1 RES1   0.0000
    30 C30     38.8632 -15.2811   7.6804   C.2       1 RES1   0.0000
    31 N31     38.2363 -14.3355   8.4349   N.2       1 RES1   0.0000
    32 C32     37.6803 -12.7333  10.8189   C.2       1 RES1   0.0000
@<TRIPOS>BOND
     1     1     2    1
     2     2     3    2
     3     2     4    2
     4     2     5    1
     5     5     6    2
     6     6     7    1
     7     7     8    2
     8     8     9    1
     9    10     9    1
    10    10    11    1
    11    11    12    2
    12    12    13    1
    13    13    14    2
    14    14    15    1
    15    15    16    1
    16    15    17    2
    17    10    18    1
    18    18    19    2
    19    19    20    1
    20    20    21    2
    21    21    22    1
    22    22    23    2
    23     8    24    1
    24    24    25    1
    25    25    26    1
    26    26    27    2
    27    27    28    1
    28    28    29    2
    29    29    30    1
    30    30    31    2
    31    24    32    2
    32    32     5    1
    33    17    11    1
    34    23    18    1
    35    31    26    1
@<TRIPOS>SUBSTRUCTURE
     1 RES1        1 GROUP             0 ****  ****    0  
@<TRIPOS>MOLECULE
ligand_44
    32    35     1     0     0
SMALL
NO_CHARGES
****
Generated from the CSD

@<TRIPOS>ATOM
     1 C1      31.4011 -16.6837  11.4086   C.3       1 RES1   0.0000
     2 S2      32.1211 -15.7743  12.7921   S.o2      1 RES1   0.0000
     3 O3      31.1580 -15.6926  13.8839   O.2       1 RES1   0.0000
     4 O4      33.4616 -16.2434  13.0433   O.2       1 RES1   0.0000
     5 C5      32.2525 -14.1403  12.1461   C.2       1 RES1   0.0000
     6 C6      33.4898 -13.7228  11.6344   C.2       1 RES1   0.0000
     7 C7      33.5904 -12.4602  11.0629   C.2       1 RES1   0.0000
     8 C8      32.4872 -11.5870  11.0602   C.2       1 RES1   0.0000
     9 N9      32.6204 -10.3270  10.6030   N.2       1 RES1   0.0000
    10 C10     33.8305  -9.8397   9.9579   C.3       1 RES1   0.0000
    11 C11     33.5195  -8.6574   9.0202   C.2       1 RES1   0.0000
    12 C12     33.0411  -7.4296   9.5137   C.2       1 RES1   0.0000
    13 C13     32.8227  -6.3339   8.6374   C.2       1 RES1   0.0000
    14 C14     33.1128  -6.4678   7.2687   C.2       1 RES1   0.0000
    15 C15     33.6465  -7.6855   6.7860   C.2       1 RES1   0.0000
    16 Cl16    34.0257  -7.9191   5.0818   Cl        1 RES1   0.0000
    17 C17     33.8347  -8.7723   7.6565   C.2       1 RES1   0.0000
    18 C18     34.8560  -9.3356  10.9752   C.2       1 RES1   0.0000
    19 C19     34.5136  -8.4932  12.0462   C.2       1 RES1   0.0000
    20 C20     35.5240  -8.1112  12.9472   C.2       1 RES1   0.0000
    21 C21     36.8471  -8.5441  12.7569   C.2       1 RES1   0.0000
    22 C22     37.1356  -9.3791  11.6675   C.2       1 RES1   0.0000
    23 N23     36.1394  -9.7438  10.8236   N.2       1 RES1   0.0000
    24 C24     31.2475 -11.9961  11.5813   C.2       1 RES1   0.0000
    25 N25     30.1797 -11.1365  11.4704   N.2       1 RES1   0.0000
    26 C26     28.9112 -11.2108  11.9718   C.2       1 RES1   0.0000
    27 N27     28.0608 -10.1902  11.6654   N.2       1 RES1   0.0000
    28 C28     26.7688 -10.1662  12.1075   C.2       1 RES1   0.0000
    29 C29     26.2877 -11.2332  12.8925   C.2       1 RES1   0.0000
    30 C30     27.1815 -12.2850  13.1934   C.2       1 RES1   0.0000
    31 N31     28.4598 -12.2535  12.7229   N.2       1 RES1   0.0000
    32 C32     31.1366 -13.2995  12.1093   C.2       1 RES1   0.0000
@<TRIPOS>BOND
     1     1     2    1
     2     2     3    2
     3     2     4    2
     4     2     5    1
     5     5     6    2
     6     6     7    1
     7     7     8    2
     8     8     9    1
     9    10     9    1
    10    10    11    1
    11    11    12    2
    12    12    13    1
    13    13    14    2
    14    14    15    1
    15    15    16    1
    16    15    17    2
    17    10    18    1
    18    18    19    2
    19    19    20    1
    20    20    21    2
    21    21    22    1
    22    22    23    2
    23     8    24    1
    24    24    25    1
    25    25    26    1
    26    26    27    2
    27    27    28    1
    28    28    29    2
    29    29    30    1
    30    30    31    2
    31    24    32    2
    32    32     5    1
    33    17    11    1
    34    23    18    1
    35    31    26    1
@<TRIPOS>SUBSTRUCTURE
     1 RES1        1 GROUP             0 ****  ****    0  
@<TRIPOS>MOLECULE
ligand_45
    32    35     1     0     0
SMALL
NO_CHARGES
****
Generated from the CSD

@<TRIPOS>ATOM
     1 C1      32.7830 -15.5878  14.4614   C.3       1 RES1   0.0000
     2 S2      32.1211 -15.7743  12.7921   S.o2      1 RES1   0.0000
     3 O3      33.0251 -16.5912  11.9910   O.2       1 RES1   0.0000
     4 O4      30.7169 -16.0975  12.8543   O.2       1 RES1   0.0000
     5 C5      32.2525 -14.1403  12.1461   C.2       1 RES1   0.0000
     6 C6      33.4898 -13.7228  11.6344   C.2       1 RES1   0.0000
     7 C7      33.5904 -12.4602  11.0629   C.2       1 RES1   0.0000
     8 C8      32.4872 -11.5870  11.0602   C.2       1 RES1   0.0000
     9 N9      32.6204 -10.3270  10.6030   N.2       1 RES1   0.0000
    10 C10     33.8305  -9.8397   9.9579   C.3       1 RES1   0.0000
    11 C11     33.5195  -8.6574   9.0202   C.2       1 RES1   0.0000
    12 C12     33.0411  -7.4296   9.5137   C.2       1 RES1   0.0000
    13 C13     32.8227  -6.3339   8.6374   C.2       1 RES1   0.0000
    14 C14     33.1128  -6.4678   7.2687   C.2       1 RES1   0.0000
    15 C15     33.6465  -7.6855   6.7860   C.2       1 RES1   0.0000
    16 Cl16    34.0257  -7.9191   5.0818   Cl        1 RES1   0.0000
    17 C17     33.8347  -8.7723   7.6565   C.2       1 RES1   0.0000
    18 C18     34.8560  -9.3356  10.9752   C.2       1 RES1   0.0000
    19 C19     34.5136  -8.4932  12.0462   C.2       1 RES1   0.0000
    20 C20     35.5240  -8.1112  12.9472   C.2       1 RES1   0.0000
    21 C21     36.8471  -8.5441  12.7569   C.2       1 RES1   0.0000
    22 C22     37.1356  -9.3791  11.6675   C.2       1 RES1   0.0000
    23 N23     36.1394  -9.7438  10.8236   N.2       1 RES1   0.0000
    24 C24     31.2475 -11.9961  11.5813   C.2       1 RES1   0.0000
    25 N25     30.1797 -11.1365  11.4704   N.2       1 RES1   0.0000
    26 C26     28.9112 -11.2108  11.9718   C.2       1 RES1   0.0000
    27 N27     28.0608 -10.1902  11.6654   N.2       1 RES1   0.0000
    28 C28     26.7688 -10.1662  12.1075   C.2       1 RES1   0.0000
    29 C29     26.2877 -11.2332  12.8925   C.2       1 RES1   0.0000
    30 C30     27.1815 -12.2850  13.1934   C.2       1 RES1   0.0000
    31 N31     28.4598 -12.2535  12.7229   N.2       1 RES1   0.0000
    32 C32     31.1366 -13.2995  12.1093   C.2       1 RES1   0.0000
@<TRIPOS>BOND
     1     1     2    1
     2     2     3    2
     3     2     4    2
     4     2     5    1
     5     5     6    2
     6     6     7    1
     7     7     8    2
     8     8     9    1
     9    10     9    1
    10    10    11    1
    11    11    12    2
    12    12    13    1
    13    13    14    2
    14    14    15    1
    15    15    16    1
    16    15    17    2
    17    10    18    1
    18    18    19    2
    19    19    20    1
    20    20    21    2
    21    21    22    1
    22    22    23    2
    23     8    24    1
    24    24    25    1
    25    25    26    1
    26    26    27    2
    27    27    28    1
    28    28    29    2
    29    29    30    1
    30    30    31    2
    31    24    32    2
    32    32     5    1
    33    17    11    1
    34    23    18    1
    35    31    26    1
@<TRIPOS>SUBSTRUCTURE
     1 RES1        1 GROUP             0 ****  ****    0  
@<TRIPOS>MOLECULE
ligand_46
    32    35     1     0     0
SMALL
NO_CHARGES
****
Generated from the CSD

@<TRIPOS>ATOM
     1 C1      38.2974 -11.2633  15.8222   C.3       1 RES1   0.0000
     2 S2      37.6960 -12.6725  14.8673   S.o2      1 RES1   0.0000
     3 O3      38.8249 -13.4532  14.3749   O.2       1 RES1   0.0000
     4 O4      36.6210 -13.3224  15.5757   O.2       1 RES1   0.0000
     5 C5      36.9936 -11.8988  13.4487   C.2       1 RES1   0.0000
     6 C6      35.6072 -11.6881  13.4216   C.2       1 RES1   0.0000
     7 C7      35.0488 -11.0207  12.3381   C.2       1 RES1   0.0000
     8 C8      35.8510 -10.6245  11.2523   C.2       1 RES1   0.0000
     9 N9      35.2887 -10.0755  10.1582   N.2       1 RES1   0.0000
    10 C10     33.8788  -9.7228  10.0816   C.3       1 RES1   0.0000
    11 C11     33.6437  -8.6056   9.0471   C.2       1 RES1   0.0000
    12 C12     33.1565  -7.3406   9.4242   C.2       1 RES1   0.0000
    13 C13     33.0088  -6.3065   8.4624   C.2       1 RES1   0.0000
    14 C14     33.3782  -6.5396   7.1265   C.2       1 RES1   0.0000
    15 C15     33.9201  -7.7945   6.7628   C.2       1 RES1   0.0000
    16 Cl16    34.3969  -8.1515   5.1051   Cl        1 RES1   0.0000
    17 C17     34.0381  -8.8197   7.7163   C.2       1 RES1   0.0000
    18 C18     33.0164 -10.9103   9.6495   C.2       1 RES1   0.0000
    19 C19     33.3663 -11.7559   8.5835   C.2       1 RES1   0.0000
    20 C20     32.5228 -12.8413   8.2851   C.2       1 RES1   0.0000
    21 C21     31.3457 -13.0509   9.0232   C.2       1 RES1   0.0000
    22 C22     31.0404 -12.1728  10.0734   C.2       1 RES1   0.0000
    23 N23     31.8791 -11.1439  10.3486   N.2       1 RES1   0.0000
    24 C24     37.2395 -10.8427  11.2691   C.2       1 RES1   0.0000
    25 N25     37.9875 -10.3538  10.2236   N.2       1 RES1   0.0000
    26 C26     39.3099 -10.5062   9.9171   C.2       1 RES1   0.0000
    27 N27     39.7671  -9.8689   8.8021   N.2       1 RES1   0.0000
    28 C28     41.0720  -9.9469   8.4067   C.2       1 RES1   0.0000
    29 C29     41.9837 -10.6950   9.1783   C.2       1 RES1   0.0000
    30 C30     41.4929 -11.3421  10.3342   C.2       1 RES1   0.0000
    31 N31     40.1795 -11.2268  10.6784   N.2       1 RES1   0.0000
    32 C32     37.8084 -11.4703  12.3970   C.2       1 RES1   0.0000
@<TRIPOS>BOND
     1     1     2    1
     2     2     3    2
     3     2     4    2
     4     2     5    1
     5     5     6    2
     6     6     7    1
     7     7     8    2
     8     8     9    1
     9    10     9    1
    10    10    11    1
    11    11    12    2
    12    12    13    1
    13    13    14    2
    14    14    15    1
    15    15    16    1
    16    15    17    2
    17    10    18    1
    18    18    19    2
    19    19    20    1
    20    20    21    2
    21    21    22    1
    22    22    23    2
    23     8    24    1
    24    24    25    1
    25    25    26    1
    26    26    27    2
    27    27    28    1
    28    28    29    2
    29    29    30    1
    30    30    31    2
    31    24    32    2
    32    32     5    1
    33    17    11    1
    34    23    18    1
    35    31    26    1
@<TRIPOS>SUBSTRUCTURE
     1 RES1        1 GROUP             0 ****  ****    0  
@<TRIPOS>MOLECULE
ligand_47
    32    35     1     0     0
SMALL
NO_CHARGES
****
Generated from the CSD

@<TRIPOS>ATOM
     1 C1      37.4054 -14.4241  14.5400   C.3       1 RES1   0.0000
     2 S2      37.6960 -12.6725  14.8673   S.o2      1 RES1   0.0000
     3 O3      36.8831 -12.2401  15.9980   O.2       1 RES1   0.0000
     4 O4      39.1117 -12.3978  14.8467   O.2       1 RES1   0.0000
     5 C5      36.9936 -11.8988  13.4487   C.2       1 RES1   0.0000
     6 C6      35.6072 -11.6881  13.4216   C.2       1 RES1   0.0000
     7 C7      35.0488 -11.0207  12.3381   C.2       1 RES1   0.0000
     8 C8      35.8510 -10.6245  11.2523   C.2       1 RES1   0.0000
     9 N9      35.2887 -10.0755  10.1582   N.2       1 RES1   0.0000
    10 C10     33.8788  -9.7228  10.0816   C.3       1 RES1   0.0000
    11 C11     33.6437  -8.6056   9.0471   C.2       1 RES1   0.0000
    12 C12     33.1565  -7.3406   9.4242   C.2       1 RES1   0.0000
    13 C13     33.0088  -6.3065   8.4624   C.2       1 RES1   0.0000
    14 C14     33.3782  -6.5396   7.1265   C.2       1 RES1   0.0000
    15 C15     33.9201  -7.7945   6.7628   C.2       1 RES1   0.0000
    16 Cl16    34.3969  -8.1515   5.1051   Cl        1 RES1   0.0000
    17 C17     34.0381  -8.8197   7.7163   C.2       1 RES1   0.0000
    18 C18     33.0164 -10.9103   9.6495   C.2       1 RES1   0.0000
    19 C19     33.3663 -11.7559   8.5835   C.2       1 RES1   0.0000
    20 C20     32.5228 -12.8413   8.2851   C.2       1 RES1   0.0000
    21 C21     31.3457 -13.0509   9.0232   C.2       1 RES1   0.0000
    22 C22     31.0404 -12.1728  10.0734   C.2       1 RES1   0.0000
    23 N23     31.8791 -11.1439  10.3486   N.2       1 RES1   0.0000
    24 C24     37.2395 -10.8427  11.2691   C.2       1 RES1   0.0000
    25 N25     37.9875 -10.3538  10.2236   N.2       1 RES1   0.0000
    26 C26     39.3099 -10.5062   9.9171   C.2       1 RES1   0.0000
    27 N27     39.7671  -9.8689   8.8021   N.2       1 RES1   0.0000
    28 C28     41.0720  -9.9469   8.4067   C.2       1 RES1   0.0000
    29 C29     41.9837 -10.6950   9.1783   C.2       1 RES1   0.0000
    30 C30     41.4929 -11.3421  10.3342   C.2       1 RES1   0.0000
    31 N31     40.1795 -11.2268  10.6784   N.2       1 RES1   0.0000
    32 C32     37.8084 -11.4703  12.3970   C.2       1 RES1   0.0000
@<TRIPOS>BOND
     1     1     2    1
     2     2     3    2
     3     2     4    2
     4     2     5    1
     5     5     6    2
     6     6     7    1
     7     7     8    2
     8     8     9    1
     9    10     9    1
    10    10    11    1
    11    11    12    2
    12    12    13    1
    13    13    14    2
    14    14    15    1
    15    15    16    1
    16    15    17    2
    17    10    18    1
    18    18    19    2
    19    19    20    1
    20    20    21    2
    21    21    22    1
    22    22    23    2
    23     8    24    1
    24    24    25    1
    25    25    26    1
    26    26    27    2
    27    27    28    1
    28    28    29    2
    29    29    30    1
    30    30    31    2
    31    24    32    2
    32    32     5    1
    33    17    11    1
    34    23    18    1
    35    31    26    1
@<TRIPOS>SUBSTRUCTURE
     1 RES1        1 GROUP             0 ****  ****    0  
@<TRIPOS>MOLECULE
ligand_48
    32    35     1     0     0
SMALL
NO_CHARGES
****
Generated from the CSD

@<TRIPOS>ATOM
     1 C1      36.2188 -11.9736  16.7479   C.3       1 RES1   0.0000
     2 S2      36.7645 -12.9445  15.3270   S.o2      1 RES1   0.0000
     3 O3      38.2215 -12.9915  15.2914   O.2       1 RES1   0.0000
     4 O4      35.9989 -14.1639  15.2427   O.2       1 RES1   0.0000
     5 C5      36.2845 -11.9319  13.9674   C.2       1 RES1   0.0000
     6 C6      35.0810 -12.2250  13.3094   C.2       1 RES1   0.0000
     7 C7      34.6585 -11.3955  12.2777   C.2       1 RES1   0.0000
     8 C8      35.4591 -10.3195  11.8526   C.2       1 RES1   0.0000
     9 N9      35.0965  -9.5853  10.7830   N.2       1 RES1   0.0000
    10 C10     33.8345  -9.7714  10.0825   C.3       1 RES1   0.0000
    11 C11     33.5715  -8.6142   9.1001   C.2       1 RES1   0.0000
    12 C12     33.1087  -7.3610   9.5421   C.2       1 RES1   0.0000
    13 C13     32.9349  -6.2902   8.6259   C.2       1 RES1   0.0000
    14 C14     33.2540  -6.4748   7.2697   C.2       1 RES1   0.0000
    15 C15     33.7720  -7.7187   6.8394   C.2       1 RES1   0.0000
    16 Cl16    34.1858  -8.0158   5.1533   Cl        1 RES1   0.0000
    17 C17     33.9159  -8.7802   7.7487   C.2       1 RES1   0.0000
    18 C18     33.8247 -11.0594   9.2568   C.2       1 RES1   0.0000
    19 C19     32.6666 -11.8316   9.0663   C.2       1 RES1   0.0000
    20 C20     32.7538 -12.9824   8.2623   C.2       1 RES1   0.0000
    21 C21     33.9806 -13.3585   7.6899   C.2       1 RES1   0.0000
    22 C22     35.1077 -12.5552   7.9173   C.2       1 RES1   0.0000
    23 N23     34.9915 -11.4433   8.6840   N.2       1 RES1   0.0000
    24 C24     36.6714 -10.0274  12.5012   C.2       1 RES1   0.0000
    25 N25     37.3687  -8.9102  12.1045   N.2       1 RES1   0.0000
    26 C26     38.6008  -8.4450  12.4670   C.2       1 RES1   0.0000
    27 N27     39.0150  -7.2758  11.9013   N.2       1 RES1   0.0000
    28 C28     40.2252  -6.7164  12.1975   C.2       1 RES1   0.0000
    29 C29     41.0714  -7.3535  13.1272   C.2       1 RES1   0.0000
    30 C30     40.6217  -8.5601  13.7083   C.2       1 RES1   0.0000
    31 N31     39.4030  -9.0693  13.3735   N.2       1 RES1   0.0000
    32 C32     37.0676 -10.8393  13.5845   C.2       1 RES1   0.0000
@<TRIPOS>BOND
     1     1     2    1
     2     2     3    2
     3     2     4    2
     4     2     5    1
     5     5     6    2
     6     6     7    1
     7     7     8    2
     8     8     9    1
     9    10     9    1
    10    10    11    1
    11    11    12    2
    12    12    13    1
    13    13    14    2
    14    14    15    1
    15    15    16    1
    16    15    17    2
    17    10    18    1
    18    18    19    2
    19    19    20    1
    20    20    21    2
    21    21    22    1
    22    22    23    2
    23     8    24    1
    24    24    25    1
    25    25    26    1
    26    26    27    2
    27    27    28    1
    28    28    29    2
    29    29    30    1
    30    30    31    2
    31    24    32    2
    32    32     5    1
    33    17    11    1
    34    23    18    1
    35    31    26    1
@<TRIPOS>SUBSTRUCTURE
     1 RES1        1 GROUP             0 ****  ****    0  
@<TRIPOS>MOLECULE
ligand_49
    32    35     1     0     0
SMALL
NO_CHARGES
****
Generated from the CSD

@<TRIPOS>ATOM
     1 C1      37.5225 -14.3635  14.5077   C.3       1 RES1   0.0000
     2 S2      36.7645 -12.9445  15.3270   S.o2      1 RES1   0.0000
     3 O3      35.5235 -13.3532  15.9744   O.2       1 RES1   0.0000
     4 O4      37.7629 -12.2163  16.0706   O.2       1 RES1   0.0000
     5 C5      36.2845 -11.9319  13.9674   C.2       1 RES1   0.0000
     6 C6      35.0810 -12.2250  13.3094   C.2       1 RES1   0.0000
     7 C7      34.6585 -11.3955  12.2777   C.2       1 RES1   0.0000
     8 C8      35.4591 -10.3195  11.8526   C.2       1 RES1   0.0000
     9 N9      35.0965  -9.5853  10.7830   N.2       1 RES1   0.0000
    10 C10     33.8345  -9.7714  10.0825   C.3       1 RES1   0.0000
    11 C11     33.5715  -8.6142   9.1001   C.2       1 RES1   0.0000
    12 C12     33.1087  -7.3610   9.5421   C.2       1 RES1   0.0000
    13 C13     32.9349  -6.2902   8.6259   C.2       1 RES1   0.0000
    14 C14     33.2540  -6.4748   7.2697   C.2       1 RES1   0.0000
    15 C15     33.7720  -7.7187   6.8394   C.2       1 RES1   0.0000
    16 Cl16    34.1858  -8.0158   5.1533   Cl        1 RES1   0.0000
    17 C17     33.9159  -8.7802   7.7487   C.2       1 RES1   0.0000
    18 C18     33.8247 -11.0594   9.2568   C.2       1 RES1   0.0000
    19 C19     32.6666 -11.8316   9.0663   C.2       1 RES1   0.0000
    20 C20     32.7538 -12.9824   8.2623   C.2       1 RES1   0.0000
    21 C21     33.9806 -13.3585   7.6899   C.2       1 RES1   0.0000
    22 C22     35.1077 -12.5552   7.9173   C.2       1 RES1   0.0000
    23 N23     34.9915 -11.4433   8.6840   N.2       1 RES1   0.0000
    24 C24     36.6714 -10.0274  12.5012   C.2       1 RES1   0.0000
    25 N25     37.3687  -8.9102  12.1045   N.2       1 RES1   0.0000
    26 C26     38.6008  -8.4450  12.4670   C.2       1 RES1   0.0000
    27 N27     39.0150  -7.2758  11.9013   N.2       1 RES1   0.0000
    28 C28     40.2252  -6.7164  12.1975   C.2       1 RES1   0.0000
    29 C29     41.0714  -7.3535  13.1272   C.2       1 RES1   0.0000
    30 C30     40.6217  -8.5601  13.7083   C.2       1 RES1   0.0000
    31 N31     39.4030  -9.0693  13.3735   N.2       1 RES1   0.0000
    32 C32     37.0676 -10.8393  13.5845   C.2       1 RES1   0.0000
@<TRIPOS>BOND
     1     1     2    1
     2     2     3    2
     3     2     4    2
     4     2     5    1
     5     5     6    2
     6     6     7    1
     7     7     8    2
     8     8     9    1
     9    10     9    1
    10    10    11    1
    11    11    12    2
    12    12    13    1
    13    13    14    2
    14    14    15    1
    15    15    16    1
    16    15    17    2
    17    10    18    1
    18    18    19    2
    19    19    20    1
    20    20    21    2
    21    21    22    1
    22    22    23    2
    23     8    24    1
    24    24    25    1
    25    25    26    1
    26    26    27    2
    27    27    28    1
    28    28    29    2
    29    29    30    1
    30    30    31    2
    31    24    32    2
    32    32     5    1
    33    17    11    1
    34    23    18    1
    35    31    26    1
@<TRIPOS>SUBSTRUCTURE
     1 RES1        1 GROUP             0 ****  ****    0  
@<TRIPOS>MOLECULE
ligand_50
    32    35     1     0     0
SMALL
NO_CHARGES
****
Generated from the CSD

@<TRIPOS>ATOM
     1 C1      32.2891 -16.5001  12.6829   C.3       1 RES1   0.0000
     2 S2      32.3281 -15.1869  13.9212   S.o2      1 RES1   0.0000
     3 O3      31.0505 -15.1309  14.6219   O.2       1 RES1   0.0000
     4 O4      33.5604 -15.2527  14.6676   O.2       1 RES1   0.0000
     5 C5      32.3951 -13.7315  12.9303   C.2       1 RES1   0.0000
     6 C6      33.6436 -13.1319  12.7094   C.2       1 RES1   0.0000
     7 C7      33.7193 -12.0218  11.8769   C.2       1 RES1   0.0000
     8 C8      32.5532 -11.4652  11.3202   C.2       1 RES1   0.0000
     9 N9      32.6204 -10.3270  10.6030   N.2       1 RES1   0.0000
    10 C10     33.8485  -9.8477   9.9864   C.3       1 RES1   0.0000
    11 C11     33.5515  -8.7658   8.9307   C.2       1 RES1   0.0000
    12 C12     33.0747  -7.4923   9.2923   C.2       1 RES1   0.0000
    13 C13     32.8694  -6.4905   8.3072   C.2       1 RES1   0.0000
    14 C14     33.1708  -6.7640   6.9619   C.2       1 RES1   0.0000
    15 C15     33.7027  -8.0267   6.6104   C.2       1 RES1   0.0000
    16 Cl16    34.0956  -8.4338   4.9424   Cl        1 RES1   0.0000
    17 C17     33.8779  -9.0200   7.5886   C.2       1 RES1   0.0000
    18 C18     34.7919  -9.2145  11.0111   C.2       1 RES1   0.0000
    19 C19     36.1849  -9.3936  10.9743   C.2       1 RES1   0.0000
    20 C20     36.9695  -8.7418  11.9428   C.2       1 RES1   0.0000
    21 C21     36.3637  -7.9546  12.9365   C.2       1 RES1   0.0000
    22 C22     34.9681  -7.8143  12.9310   C.2       1 RES1   0.0000
    23 N23     34.2378  -8.4416  11.9767   N.2       1 RES1   0.0000
    24 C24     31.2979 -12.0556  11.5469   C.2       1 RES1   0.0000
    25 N25     30.2038 -11.5245  10.9047   N.2       1 RES1   0.0000
    26 C26     28.8721 -11.8073  11.0165   C.2       1 RES1   0.0000
    27 N27     28.0188 -11.1089  10.2148   N.2       1 RES1   0.0000
    28 C28     26.6691 -11.3159  10.2389   C.2       1 RES1   0.0000
    29 C29     26.1354 -12.2907  11.1057   C.2       1 RES1   0.0000
    30 C30     27.0360 -13.0093  11.9232   C.2       1 RES1   0.0000
    31 N31     28.3735 -12.7585  11.8541   N.2       1 RES1   0.0000
    32 C32     31.2344 -13.2154  12.3472   C.2       1 RES1   0.0000
@<TRIPOS>BOND
     1     1     2    1
     2     2     3    2
     3     2     4    2
     4     2     5    1
     5     5     6    2
     6     6     7    1
     7     7     8    2
     8     8     9    1
     9    10     9    1
    10    10    11    1
    11    11    12    2
    12    12    13    1
    13    13    14    2
    14    14    15    1
    15    15    16    1
    16    15    17    2
    17    10    18    1
    18    18    19    2
    19    19    20    1
    20    20    21    2
    21    21    22    1
    22    22    23    2
    23     8    24    1
    24    24    25    1
    25    25    26    1
    26    26    27    2
    27    27    28    1
    28    28    29    2
    29    29    30    1
    30    30    31    2
    31    24    32    2
    32    32     5    1
    33    17    11    1
    34    23    18    1
    35    31    26    1
@<TRIPOS>SUBSTRUCTURE
     1 RES1        1 GROUP             0 ****  ****    0  
@<TRIPOS>MOLECULE
ligand_51
    32    35     1     0     0
SMALL
NO_CHARGES
****
Generated from the CSD

@<TRIPOS>ATOM
     1 C1      32.3374 -14.5175  15.5979   C.3       1 RES1   0.0000
     2 S2      32.3281 -15.1869  13.9212   S.o2      1 RES1   0.0000
     3 O3      33.5755 -15.8977  13.6665   O.2       1 RES1   0.0000
     4 O4      31.0632 -15.8268  13.6554   O.2       1 RES1   0.0000
     5 C5      32.3951 -13.7315  12.9303   C.2       1 RES1   0.0000
     6 C6      33.6436 -13.1319  12.7094   C.2       1 RES1   0.0000
     7 C7      33.7193 -12.0218  11.8769   C.2       1 RES1   0.0000
     8 C8      32.5532 -11.4652  11.3202   C.2       1 RES1   0.0000
     9 N9      32.6204 -10.3270  10.6030   N.2       1 RES1   0.0000
    10 C10     33.8485  -9.8477   9.9864   C.3       1 RES1   0.0000
    11 C11     33.5515  -8.7658   8.9307   C.2       1 RES1   0.0000
    12 C12     33.0747  -7.4923   9.2923   C.2       1 RES1   0.0000
    13 C13     32.8694  -6.4905   8.3072   C.2       1 RES1   0.0000
    14 C14     33.1708  -6.7640   6.9619   C.2       1 RES1   0.0000
    15 C15     33.7027  -8.0267   6.6104   C.2       1 RES1   0.0000
    16 Cl16    34.0956  -8.4338   4.9424   Cl        1 RES1   0.0000
    17 C17     33.8779  -9.0200   7.5886   C.2       1 RES1   0.0000
    18 C18     34.7919  -9.2145  11.0111   C.2       1 RES1   0.0000
    19 C19     36.1849  -9.3936  10.9743   C.2       1 RES1   0.0000
    20 C20     36.9695  -8.7418  11.9428   C.2       1 RES1   0.0000
    21 C21     36.3637  -7.9546  12.9365   C.2       1 RES1   0.0000
    22 C22     34.9681  -7.8143  12.9310   C.2       1 RES1   0.0000
    23 N23     34.2378  -8.4416  11.9767   N.2       1 RES1   0.0000
    24 C24     31.2979 -12.0556  11.5469   C.2       1 RES1   0.0000
    25 N25     30.2038 -11.5245  10.9047   N.2       1 RES1   0.0000
    26 C26     28.8721 -11.8073  11.0165   C.2       1 RES1   0.0000
    27 N27     28.0188 -11.1089  10.2148   N.2       1 RES1   0.0000
    28 C28     26.6691 -11.3159  10.2389   C.2       1 RES1   0.0000
    29 C29     26.1354 -12.2907  11.1057   C.2       1 RES1   0.0000
    30 C30     27.0360 -13.0093  11.9232   C.2       1 RES1   0.0000
    31 N31     28.3735 -12.7585  11.8541   N.2       1 RES1   0.0000
    32 C32     31.2344 -13.2154  12.3472   C.2       1 RES1   0.0000
@<TRIPOS>BOND
     1     1     2    1
     2     2     3    2
     3     2     4    2
     4     2     5    1
     5     5     6    2
     6     6     7    1
     7     7     8    2
     8     8     9    1
     9    10     9    1
    10    10    11    1
    11    11    12    2
    12    12    13    1
    13    13    14    2
    14    14    15    1
    15    15    16    1
    16    15    17    2
    17    10    18    1
    18    18    19    2
    19    19    20    1
    20    20    21    2
    21    21    22    1
    22    22    23    2
    23     8    24    1
    24    24    25    1
    25    25    26    1
    26    26    27    2
    27    27    28    1
    28    28    29    2
    29    29    30    1
    30    30    31    2
    31    24    32    2
    32    32     5    1
    33    17    11    1
    34    23    18    1
    35    31    26    1
@<TRIPOS>SUBSTRUCTURE
     1 RES1        1 GROUP             0 ****  ****    0  
@<TRIPOS>MOLECULE
ligand_52
    32    35     1     0     0
SMALL
NO_CHARGES
****
Generated from the CSD

@<TRIPOS>ATOM
     1 C1      26.4814 -10.3476  10.6665   C.3       1 RES1   0.0000
     2 S2      27.4488 -11.8358  10.9963   S.o2      1 RES1   0.0000
     3 O3      27.1507 -12.3319  12.3347   O.2       1 RES1   0.0000
     4 O4      27.3819 -12.7256   9.8632   O.2       1 RES1   0.0000
     5 C5      29.0943 -11.2107  11.0726   C.2       1 RES1   0.0000
     6 C6      29.9019 -11.3169   9.9308   C.2       1 RES1   0.0000
     7 C7      31.1791 -10.7699   9.9564   C.2       1 RES1   0.0000
     8 C8      31.6807 -10.1809  11.1315   C.2       1 RES1   0.0000
     9 N9      32.9559  -9.7498  11.1832   N.2       1 RES1   0.0000
    10 C10     33.8653  -9.8210  10.0492   C.3       1 RES1   0.0000
    11 C11     33.5936  -8.6802   9.0501   C.2       1 RES1   0.0000
    12 C12     33.1088  -7.4286   9.4725   C.2       1 RES1   0.0000
    13 C13     32.9271  -6.3719   8.5415   C.2       1 RES1   0.0000
    14 C14     33.2601  -6.5688   7.1903   C.2       1 RES1   0.0000
    15 C15     33.7998  -7.8102   6.7800   C.2       1 RES1   0.0000
    16 Cl16    34.2319  -8.1223   5.1012   Cl        1 RES1   0.0000
    17 C17     33.9516  -8.8580   7.7038   C.2       1 RES1   0.0000
    18 C18     35.3271  -9.6882  10.4809   C.2       1 RES1   0.0000
    19 C19     36.3614 -10.4451   9.9054   C.2       1 RES1   0.0000
    20 C20     37.6781 -10.2256  10.3488   C.2       1 RES1   0.0000
    21 C21     37.9400  -9.2893  11.3632   C.2       1 RES1   0.0000
    22 C22     36.8696  -8.5650  11.9080   C.2       1 RES1   0.0000
    23 N23     35.6126  -8.7861  11.4512   N.2       1 RES1   0.0000
    24 C24     30.8797 -10.0812  12.2822   C.2       1 RES1   0.0000
    25 N25     31.3879  -9.4149  13.3728   N.2       1 RES1   0.0000
    26 C26     32.3158  -9.7903  14.3023   C.2       1 RES1   0.0000
    27 N27     32.8622 -11.0322  14.1688   N.2       1 RES1   0.0000
    28 C28     33.8036 -11.5067  15.0369   C.2       1 RES1   0.0000
    29 C29     34.2403 -10.6876  16.0973   C.2       1 RES1   0.0000
    30 C30     33.6680  -9.4013  16.2149   C.2       1 RES1   0.0000
    31 N31     32.7325  -8.9829  15.3169   N.2       1 RES1   0.0000
    32 C32     29.5643 -10.5880  12.2324   C.2       1 RES1   0.0000
@<TRIPOS>BOND
     1     1     2    1
     2     2     3    2
     3     2     4    2
     4     2     5    1
     5     5     6    2
     6     6     7    1
     7     7     8    2
     8     8     9    1
     9    10     9    1
    10    10    11    1
    11    11    12    2
    12    12    13    1
    13    13    14    2
    14    14    15    1
    15    15    16    1
    16    15    17    2
    17    10    18    1
    18    18    19    2
    19    19    20    1
    20    20    21    2
    21    21    22    1
    22    22    23    2
    23     8    24    1
    24    24    25    1
    25    25    26    1
    26    26    27    2
    27    27    28    1
    28    28    29    2
    29    29    30    1
    30    30    31    2
    31    24    32    2
    32    32     5    1
    33    17    11    1
    34    23    18    1
    35    31    26    1
@<TRIPOS>SUBSTRUCTURE
     1 RES1        1 GROUP             0 ****  ****    0  
@<TRIPOS>MOLECULE
ligand_53
    32    35     1     0     0
SMALL
NO_CHARGES
****
Generated from the CSD

@<TRIPOS>ATOM
     1 C1      26.4814 -10.3476  10.6665   C.3       1 RES1   0.0000
     2 S2      27.4488 -11.8358  10.9963   S.o2      1 RES1   0.0000
     3 O3      27.1507 -12.3319  12.3347   O.2       1 RES1   0.0000
     4 O4      27.3819 -12.7256   9.8632   O.2       1 RES1   0.0000
     5 C5      29.0943 -11.2107  11.0726   C.2       1 RES1   0.0000
     6 C6      29.9019 -11.3169   9.9308   C.2       1 RES1   0.0000
     7 C7      31.1791 -10.7699   9.9564   C.2       1 RES1   0.0000
     8 C8      31.6807 -10.1809  11.1315   C.2       1 RES1   0.0000
     9 N9      32.9559  -9.7498  11.1832   N.2       1 RES1   0.0000
    10 C10     33.8615  -9.8095  10.0455   C.3       1 RES1   0.0000
    11 C11     33.5861  -8.6590   9.0587   C.2       1 RES1   0.0000
    12 C12     33.1023  -7.4118   9.4949   C.2       1 RES1   0.0000
    13 C13     32.9171  -6.3461   8.5750   C.2       1 RES1   0.0000
    14 C14     33.2457  -6.5295   7.2208   C.2       1 RES1   0.0000
    15 C15     33.7845  -7.7667   6.7966   C.2       1 RES1   0.0000
    16 Cl16    34.2112  -8.0620   5.1134   Cl        1 RES1   0.0000
    17 C17     33.9397  -8.8234   7.7095   C.2       1 RES1   0.0000
    18 C18     35.3247  -9.6804  10.4737   C.2       1 RES1   0.0000
    19 C19     36.3574 -10.4311   9.8874   C.2       1 RES1   0.0000
    20 C20     37.6755 -10.2155  10.3285   C.2       1 RES1   0.0000
    21 C21     37.9404  -9.2892  11.3512   C.2       1 RES1   0.0000
    22 C22     36.8715  -8.5707  11.9067   C.2       1 RES1   0.0000
    23 N23     35.6131  -8.7878  11.4519   N.2       1 RES1   0.0000
    24 C24     30.8797 -10.0812  12.2822   C.2       1 RES1   0.0000
    25 N25     31.3879  -9.4149  13.3728   N.2       1 RES1   0.0000
    26 C26     31.5771  -8.0817  13.6025   C.2       1 RES1   0.0000
    27 N27     31.2149  -7.2221  12.6082   N.2       1 RES1   0.0000
    28 C28     31.3536  -5.8692  12.7339   C.2       1 RES1   0.0000
    29 C29     31.8722  -5.3365  13.9312   C.2       1 RES1   0.0000
    30 C30     32.2349  -6.2426  14.9526   C.2       1 RES1   0.0000
    31 N31     32.0725  -7.5829  14.7690   N.2       1 RES1   0.0000
    32 C32     29.5643 -10.5880  12.2324   C.2       1 RES1   0.0000
@<TRIPOS>BOND
     1     1     2    1
     2     2     3    2
     3     2     4    2
     4     2     5    1
     5     5     6    2
     6     6     7    1
     7     7     8    2
     8     8     9    1
     9    10     9    1
    10    10    11    1
    11    11    12    2
    12    12    13    1
    13    13    14    2
    14    14    15    1
    15    15    16    1
    16    15    17    2
    17    10    18    1
    18    18    19    2
    19    19    20    1
    20    20    21    2
    21    21    22    1
    22    22    23    2
    23     8    24    1
    24    24    25    1
    25    25    26    1
    26    26    27    2
    27    27    28    1
    28    28    29    2
    29    29    30    1
    30    30    31    2
    31    24    32    2
    32    32     5    1
    33    17    11    1
    34    23    18    1
    35    31    26    1
@<TRIPOS>SUBSTRUCTURE
     1 RES1        1 GROUP             0 ****  ****    0  
@<TRIPOS>MOLECULE
ligand_54
    32    35     1     0     0
SMALL
NO_CHARGES
****
Generated from the CSD

@<TRIPOS>ATOM
     1 C1      27.6881 -13.6006  11.2923   C.3       1 RES1   0.0000
     2 S2      27.4488 -11.8358  10.9963   S.o2      1 RES1   0.0000
     3 O3      27.0064 -11.6210   9.6235   O.2       1 RES1   0.0000
     4 O4      26.7176 -11.2492  12.0924   O.2       1 RES1   0.0000
     5 C5      29.0943 -11.2107  11.0726   C.2       1 RES1   0.0000
     6 C6      29.9019 -11.3169   9.9308   C.2       1 RES1   0.0000
     7 C7      31.1791 -10.7699   9.9564   C.2       1 RES1   0.0000
     8 C8      31.6807 -10.1809  11.1315   C.2       1 RES1   0.0000
     9 N9      32.9559  -9.7498  11.1832   N.2       1 RES1   0.0000
    10 C10     33.8653  -9.8210  10.0492   C.3       1 RES1   0.0000
    11 C11     33.5936  -8.6802   9.0501   C.2       1 RES1   0.0000
    12 C12     33.1088  -7.4286   9.4725   C.2       1 RES1   0.0000
    13 C13     32.9271  -6.3719   8.5415   C.2       1 RES1   0.0000
    14 C14     33.2601  -6.5688   7.1903   C.2       1 RES1   0.0000
    15 C15     33.7998  -7.8102   6.7800   C.2       1 RES1   0.0000
    16 Cl16    34.2319  -8.1223   5.1012   Cl        1 RES1   0.0000
    17 C17     33.9516  -8.8580   7.7038   C.2       1 RES1   0.0000
    18 C18     35.3271  -9.6882  10.4809   C.2       1 RES1   0.0000
    19 C19     36.3614 -10.4451   9.9054   C.2       1 RES1   0.0000
    20 C20     37.6781 -10.2256  10.3488   C.2       1 RES1   0.0000
    21 C21     37.9400  -9.2893  11.3632   C.2       1 RES1   0.0000
    22 C22     36.8696  -8.5650  11.9080   C.2       1 RES1   0.0000
    23 N23     35.6126  -8.7861  11.4512   N.2       1 RES1   0.0000
    24 C24     30.8797 -10.0812  12.2822   C.2       1 RES1   0.0000
    25 N25     31.3879  -9.4149  13.3728   N.2       1 RES1   0.0000
    26 C26     32.3158  -9.7903  14.3023   C.2       1 RES1   0.0000
    27 N27     32.8622 -11.0322  14.1688   N.2       1 RES1   0.0000
    28 C28     33.8036 -11.5067  15.0369   C.2       1 RES1   0.0000
    29 C29     34.2403 -10.6876  16.0973   C.2       1 RES1   0.0000
    30 C30     33.6680  -9.4013  16.2149   C.2       1 RES1   0.0000
    31 N31     32.7325  -8.9829  15.3169   N.2       1 RES1   0.0000
    32 C32     29.5643 -10.5880  12.2324   C.2       1 RES1   0.0000
@<TRIPOS>BOND
     1     1     2    1
     2     2     3    2
     3     2     4    2
     4     2     5    1
     5     5     6    2
     6     6     7    1
     7     7     8    2
     8     8     9    1
     9    10     9    1
    10    10    11    1
    11    11    12    2
    12    12    13    1
    13    13    14    2
    14    14    15    1
    15    15    16    1
    16    15    17    2
    17    10    18    1
    18    18    19    2
    19    19    20    1
    20    20    21    2
    21    21    22    1
    22    22    23    2
    23     8    24    1
    24    24    25    1
    25    25    26    1
    26    26    27    2
    27    27    28    1
    28    28    29    2
    29    29    30    1
    30    30    31    2
    31    24    32    2
    32    32     5    1
    33    17    11    1
    34    23    18    1
    35    31    26    1
@<TRIPOS>SUBSTRUCTURE
     1 RES1        1 GROUP             0 ****  ****    0  
@<TRIPOS>MOLECULE
ligand_55
    32    35     1     0     0
SMALL
NO_CHARGES
****
Generated from the CSD

@<TRIPOS>ATOM
     1 C1      41.0621  -8.5132   8.7728   C.3       1 RES1   0.0000
     2 S2      40.6244  -9.2582  10.3580   S.o2      1 RES1   0.0000
     3 O3      41.3390 -10.5182  10.5254   O.2       1 RES1   0.0000
     4 O4      40.6654  -8.2593  11.3975   O.2       1 RES1   0.0000
     5 C5      38.9340  -9.6942  10.1195   C.2       1 RES1   0.0000
     6 C6      37.9460  -8.8274  10.6090   C.2       1 RES1   0.0000
     7 C7      36.6100  -9.1264  10.3709   C.2       1 RES1   0.0000
     8 C8      36.2507 -10.3155   9.7104   C.2       1 RES1   0.0000
     9 N9      34.9532 -10.6526   9.5780   N.2       1 RES1   0.0000
    10 C10     33.8623  -9.8161  10.0558   C.3       1 RES1   0.0000
    11 C11     33.5880  -8.6551   9.0809   C.2       1 RES1   0.0000
    12 C12     33.1062  -7.4117   9.5302   C.2       1 RES1   0.0000
    13 C13     32.9220  -6.3364   8.6214   C.2       1 RES1   0.0000
    14 C14     33.2496  -6.5064   7.2653   C.2       1 RES1   0.0000
    15 C15     33.7864  -7.7399   6.8280   C.2       1 RES1   0.0000
    16 Cl16    34.2116  -8.0185   5.1416   Cl        1 RES1   0.0000
    17 C17     33.9406  -8.8062   7.7299   C.2       1 RES1   0.0000
    18 C18     32.5552 -10.6009  10.1832   C.2       1 RES1   0.0000
    19 C19     31.6555 -10.4120  11.2456   C.2       1 RES1   0.0000
    20 C20     30.4641 -11.1595  11.2551   C.2       1 RES1   0.0000
    21 C21     30.2010 -12.0910  10.2366   C.2       1 RES1   0.0000
    22 C22     31.1362 -12.2449   9.2026   C.2       1 RES1   0.0000
    23 N23     32.2690 -11.5004   9.2107   N.2       1 RES1   0.0000
    24 C24     37.2362 -11.1935   9.2270   C.2       1 RES1   0.0000
    25 N25     36.8312 -12.2945   8.5091   N.2       1 RES1   0.0000
    26 C26     36.2720 -13.4736   8.9127   C.2       1 RES1   0.0000
    27 N27     36.0584 -13.6349  10.2495   N.2       1 RES1   0.0000
    28 C28     35.4989 -14.7705  10.7620   C.2       1 RES1   0.0000
    29 C29     35.1135 -15.8059   9.8870   C.2       1 RES1   0.0000
    30 C30     35.3359 -15.6173   8.5047   C.2       1 RES1   0.0000
    31 N31     35.8980 -14.4613   8.0527   N.2       1 RES1   0.0000
    32 C32     38.5920 -10.8564   9.4224   C.2       1 RES1   0.0000
@<TRIPOS>BOND
     1     1     2    1
     2     2     3    2
     3     2     4    2
     4     2     5    1
     5     5     6    2
     6     6     7    1
     7     7     8    2
     8     8     9    1
     9    10     9    1
    10    10    11    1
    11    11    12    2
    12    12    13    1
    13    13    14    2
    14    14    15    1
    15    15    16    1
    16    15    17    2
    17    10    18    1
    18    18    19    2
    19    19    20    1
    20    20    21    2
    21    21    22    1
    22    22    23    2
    23     8    24    1
    24    24    25    1
    25    25    26    1
    26    26    27    2
    27    27    28    1
    28    28    29    2
    29    29    30    1
    30    30    31    2
    31    24    32    2
    32    32     5    1
    33    17    11    1
    34    23    18    1
    35    31    26    1
@<TRIPOS>SUBSTRUCTURE
     1 RES1        1 GROUP             0 ****  ****    0  
@<TRIPOS>MOLECULE
ligand_56
    32    35     1     0     0
SMALL
NO_CHARGES
****
Generated from the CSD

@<TRIPOS>ATOM
     1 C1      27.6881 -13.6006  11.2923   C.3       1 RES1   0.0000
     2 S2      27.4488 -11.8358  10.9963   S.o2      1 RES1   0.0000
     3 O3      27.0064 -11.6210   9.6235   O.2       1 RES1   0.0000
     4 O4      26.7176 -11.2492  12.0924   O.2       1 RES1   0.0000
     5 C5      29.0943 -11.2107  11.0726   C.2       1 RES1   0.0000
     6 C6      29.9019 -11.3169   9.9308   C.2       1 RES1   0.0000
     7 C7      31.1791 -10.7699   9.9564   C.2       1 RES1   0.0000
     8 C8      31.6807 -10.1809  11.1315   C.2       1 RES1   0.0000
     9 N9      32.9559  -9.7498  11.1832   N.2       1 RES1   0.0000
    10 C10     33.8615  -9.8095  10.0455   C.3       1 RES1   0.0000
    11 C11     33.5861  -8.6590   9.0587   C.2       1 RES1   0.0000
    12 C12     33.1023  -7.4118   9.4949   C.2       1 RES1   0.0000
    13 C13     32.9171  -6.3461   8.5750   C.2       1 RES1   0.0000
    14 C14     33.2457  -6.5295   7.2208   C.2       1 RES1   0.0000
    15 C15     33.7845  -7.7667   6.7966   C.2       1 RES1   0.0000
    16 Cl16    34.2112  -8.0620   5.1134   Cl        1 RES1   0.0000
    17 C17     33.9397  -8.8234   7.7095   C.2       1 RES1   0.0000
    18 C18     35.3247  -9.6804  10.4737   C.2       1 RES1   0.0000
    19 C19     36.3574 -10.4311   9.8874   C.2       1 RES1   0.0000
    20 C20     37.6755 -10.2155  10.3285   C.2       1 RES1   0.0000
    21 C21     37.9404  -9.2892  11.3512   C.2       1 RES1   0.0000
    22 C22     36.8715  -8.5707  11.9067   C.2       1 RES1   0.0000
    23 N23     35.6131  -8.7878  11.4519   N.2       1 RES1   0.0000
    24 C24     30.8797 -10.0812  12.2822   C.2       1 RES1   0.0000
    25 N25     31.3879  -9.4149  13.3728   N.2       1 RES1   0.0000
    26 C26     31.5771  -8.0817  13.6025   C.2       1 RES1   0.0000
    27 N27     31.2149  -7.2221  12.6082   N.2       1 RES1   0.0000
    28 C28     31.3536  -5.8692  12.7339   C.2       1 RES1   0.0000
    29 C29     31.8722  -5.3365  13.9312   C.2       1 RES1   0.0000
    30 C30     32.2349  -6.2426  14.9526   C.2       1 RES1   0.0000
    31 N31     32.0725  -7.5829  14.7690   N.2       1 RES1   0.0000
    32 C32     29.5643 -10.5880  12.2324   C.2       1 RES1   0.0000
@<TRIPOS>BOND
     1     1     2    1
     2     2     3    2
     3     2     4    2
     4     2     5    1
     5     5     6    2
     6     6     7    1
     7     7     8    2
     8     8     9    1
     9    10     9    1
    10    10    11    1
    11    11    12    2
    12    12    13    1
    13    13    14    2
    14    14    15    1
    15    15    16    1
    16    15    17    2
    17    10    18    1
    18    18    19    2
    19    19    20    1
    20    20    21    2
    21    21    22    1
    22    22    23    2
    23     8    24    1
    24    24    25    1
    25    25    26    1
    26    26    27    2
    27    27    28    1
    28    28    29    2
    29    29    30    1
    30    30    31    2
    31    24    32    2
    32    32     5    1
    33    17    11    1
    34    23    18    1
    35    31    26    1
@<TRIPOS>SUBSTRUCTURE
     1 RES1        1 GROUP             0 ****  ****    0  
@<TRIPOS>MOLECULE
ligand_57
    32    35     1     0     0
SMALL
NO_CHARGES
****
Generated from the CSD

@<TRIPOS>ATOM
     1 C1      41.0621  -8.5132   8.7728   C.3       1 RES1   0.0000
     2 S2      40.6244  -9.2582  10.3580   S.o2      1 RES1   0.0000
     3 O3      41.3390 -10.5182  10.5254   O.2       1 RES1   0.0000
     4 O4      40.6654  -8.2593  11.3975   O.2       1 RES1   0.0000
     5 C5      38.9340  -9.6942  10.1195   C.2       1 RES1   0.0000
     6 C6      37.9460  -8.8274  10.6090   C.2       1 RES1   0.0000
     7 C7      36.6100  -9.1264  10.3709   C.2       1 RES1   0.0000
     8 C8      36.2507 -10.3155   9.7104   C.2       1 RES1   0.0000
     9 N9      34.9532 -10.6526   9.5780   N.2       1 RES1   0.0000
    10 C10     33.8620  -9.8103  10.0446   C.3       1 RES1   0.0000
    11 C11     33.5912  -8.6589   9.0575   C.2       1 RES1   0.0000
    12 C12     33.1095  -7.4106   9.4931   C.2       1 RES1   0.0000
    13 C13     32.9286  -6.3443   8.5731   C.2       1 RES1   0.0000
    14 C14     33.2594  -6.5282   7.2195   C.2       1 RES1   0.0000
    15 C15     33.7961  -7.7665   6.7960   C.2       1 RES1   0.0000
    16 Cl16    34.2252  -8.0624   5.1136   Cl        1 RES1   0.0000
    17 C17     33.9470  -8.8238   7.7090   C.2       1 RES1   0.0000
    18 C18     32.5537 -10.5926  10.1767   C.2       1 RES1   0.0000
    19 C19     31.6516 -10.3921  11.2349   C.2       1 RES1   0.0000
    20 C20     30.4594 -11.1384  11.2489   C.2       1 RES1   0.0000
    21 C21     30.1980 -12.0798  10.2391   C.2       1 RES1   0.0000
    22 C22     31.1356 -12.2449   9.2090   C.2       1 RES1   0.0000
    23 N23     32.2691 -11.5015   9.2125   N.2       1 RES1   0.0000
    24 C24     37.2362 -11.1935   9.2270   C.2       1 RES1   0.0000
    25 N25     36.8312 -12.2945   8.5091   N.2       1 RES1   0.0000
    26 C26     36.3530 -12.4093   7.2348   C.2       1 RES1   0.0000
    27 N27     36.2391 -11.2617   6.5077   N.2       1 RES1   0.0000
    28 C28     35.7795 -11.2613   5.2217   C.2       1 RES1   0.0000
    29 C29     35.4243 -12.4828   4.6150   C.2       1 RES1   0.0000
    30 C30     35.5562 -13.6620   5.3817   C.2       1 RES1   0.0000
    31 N31     36.0215 -13.5992   6.6608   N.2       1 RES1   0.0000
    32 C32     38.5920 -10.8564   9.4224   C.2       1 RES1   0.0000
@<TRIPOS>BOND
     1     1     2    1
     2     2     3    2
     3     2     4    2
     4     2     5    1
     5     5     6    2
     6     6     7    1
     7     7     8    2
     8     8     9    1
     9    10     9    1
    10    10    11    1
    11    11    12    2
    12    12    13    1
    13    13    14    2
    14    14    15    1
    15    15    16    1
    16    15    17    2
    17    10    18    1
    18    18    19    2
    19    19    20    1
    20    20    21    2
    21    21    22    1
    22    22    23    2
    23     8    24    1
    24    24    25    1
    25    25    26    1
    26    26    27    2
    27    27    28    1
    28    28    29    2
    29    29    30    1
    30    30    31    2
    31    24    32    2
    32    32     5    1
    33    17    11    1
    34    23    18    1
    35    31    26    1
@<TRIPOS>SUBSTRUCTURE
     1 RES1        1 GROUP             0 ****  ****    0  
@<TRIPOS>MOLECULE
ligand_58
    32    35     1     0     0
SMALL
NO_CHARGES
****
Generated from the CSD

@<TRIPOS>ATOM
     1 C1      40.9345  -9.8102  12.0487   C.3       1 RES1   0.0000
     2 S2      40.6244  -9.2582  10.3580   S.o2      1 RES1   0.0000
     3 O3      40.6704  -7.8019  10.2978   O.2       1 RES1   0.0000
     4 O4      41.4031 -10.0456   9.4341   O.2       1 RES1   0.0000
     5 C5      38.9340  -9.6942  10.1195   C.2       1 RES1   0.0000
     6 C6      37.9460  -8.8274  10.6090   C.2       1 RES1   0.0000
     7 C7      36.6100  -9.1264  10.3709   C.2       1 RES1   0.0000
     8 C8      36.2507 -10.3155   9.7104   C.2       1 RES1   0.0000
     9 N9      34.9532 -10.6526   9.5780   N.2       1 RES1   0.0000
    10 C10     33.8623  -9.8161  10.0558   C.3       1 RES1   0.0000
    11 C11     33.5880  -8.6551   9.0809   C.2       1 RES1   0.0000
    12 C12     33.1062  -7.4117   9.5302   C.2       1 RES1   0.0000
    13 C13     32.9220  -6.3364   8.6214   C.2       1 RES1   0.0000
    14 C14     33.2496  -6.5064   7.2653   C.2       1 RES1   0.0000
    15 C15     33.7864  -7.7399   6.8280   C.2       1 RES1   0.0000
    16 Cl16    34.2116  -8.0185   5.1416   Cl        1 RES1   0.0000
    17 C17     33.9406  -8.8062   7.7299   C.2       1 RES1   0.0000
    18 C18     32.5552 -10.6009  10.1832   C.2       1 RES1   0.0000
    19 C19     31.6555 -10.4120  11.2456   C.2       1 RES1   0.0000
    20 C20     30.4641 -11.1595  11.2551   C.2       1 RES1   0.0000
    21 C21     30.2010 -12.0910  10.2366   C.2       1 RES1   0.0000
    22 C22     31.1362 -12.2449   9.2026   C.2       1 RES1   0.0000
    23 N23     32.2690 -11.5004   9.2107   N.2       1 RES1   0.0000
    24 C24     37.2362 -11.1935   9.2270   C.2       1 RES1   0.0000
    25 N25     36.8312 -12.2945   8.5091   N.2       1 RES1   0.0000
    26 C26     36.2720 -13.4736   8.9127   C.2       1 RES1   0.0000
    27 N27     36.0584 -13.6349  10.2495   N.2       1 RES1   0.0000
    28 C28     35.4989 -14.7705  10.7620   C.2       1 RES1   0.0000
    29 C29     35.1135 -15.8059   9.8870   C.2       1 RES1   0.0000
    30 C30     35.3359 -15.6173   8.5047   C.2       1 RES1   0.0000
    31 N31     35.8980 -14.4613   8.0527   N.2       1 RES1   0.0000
    32 C32     38.5920 -10.8564   9.4224   C.2       1 RES1   0.0000
@<TRIPOS>BOND
     1     1     2    1
     2     2     3    2
     3     2     4    2
     4     2     5    1
     5     5     6    2
     6     6     7    1
     7     7     8    2
     8     8     9    1
     9    10     9    1
    10    10    11    1
    11    11    12    2
    12    12    13    1
    13    13    14    2
    14    14    15    1
    15    15    16    1
    16    15    17    2
    17    10    18    1
    18    18    19    2
    19    19    20    1
    20    20    21    2
    21    21    22    1
    22    22    23    2
    23     8    24    1
    24    24    25    1
    25    25    26    1
    26    26    27    2
    27    27    28    1
    28    28    29    2
    29    29    30    1
    30    30    31    2
    31    24    32    2
    32    32     5    1
    33    17    11    1
    34    23    18    1
    35    31    26    1
@<TRIPOS>SUBSTRUCTURE
     1 RES1        1 GROUP             0 ****  ****    0  
@<TRIPOS>MOLECULE
ligand_59
    32    35     1     0     0
SMALL
NO_CHARGES
****
Generated from the CSD

@<TRIPOS>ATOM
     1 C1      40.9345  -9.8102  12.0487   C.3       1 RES1   0.0000
     2 S2      40.6244  -9.2582  10.3580   S.o2      1 RES1   0.0000
     3 O3      40.6704  -7.8019  10.2978   O.2       1 RES1   0.0000
     4 O4      41.4031 -10.0456   9.4341   O.2       1 RES1   0.0000
     5 C5      38.9340  -9.6942  10.1195   C.2       1 RES1   0.0000
     6 C6      37.9460  -8.8274  10.6090   C.2       1 RES1   0.0000
     7 C7      36.6100  -9.1264  10.3709   C.2       1 RES1   0.0000
     8 C8      36.2507 -10.3155   9.7104   C.2       1 RES1   0.0000
     9 N9      34.9532 -10.6526   9.5780   N.2       1 RES1   0.0000
    10 C10     33.8620  -9.8103  10.0446   C.3       1 RES1   0.0000
    11 C11     33.5912  -8.6589   9.0575   C.2       1 RES1   0.0000
    12 C12     33.1095  -7.4106   9.4931   C.2       1 RES1   0.0000
    13 C13     32.9286  -6.3443   8.5731   C.2       1 RES1   0.0000
    14 C14     33.2594  -6.5282   7.2195   C.2       1 RES1   0.0000
    15 C15     33.7961  -7.7665   6.7960   C.2       1 RES1   0.0000
    16 Cl16    34.2252  -8.0624   5.1136   Cl        1 RES1   0.0000
    17 C17     33.9470  -8.8238   7.7090   C.2       1 RES1   0.0000
    18 C18     32.5537 -10.5926  10.1767   C.2       1 RES1   0.0000
    19 C19     31.6516 -10.3921  11.2349   C.2       1 RES1   0.0000
    20 C20     30.4594 -11.1384  11.2489   C.2       1 RES1   0.0000
    21 C21     30.1980 -12.0798  10.2391   C.2       1 RES1   0.0000
    22 C22     31.1356 -12.2449   9.2090   C.2       1 RES1   0.0000
    23 N23     32.2691 -11.5015   9.2125   N.2       1 RES1   0.0000
    24 C24     37.2362 -11.1935   9.2270   C.2       1 RES1   0.0000
    25 N25     36.8312 -12.2945   8.5091   N.2       1 RES1   0.0000
    26 C26     36.3530 -12.4093   7.2348   C.2       1 RES1   0.0000
    27 N27     36.2391 -11.2617   6.5077   N.2       1 RES1   0.0000
    28 C28     35.7795 -11.2613   5.2217   C.2       1 RES1   0.0000
    29 C29     35.4243 -12.4828   4.6150   C.2       1 RES1   0.0000
    30 C30     35.5562 -13.6620   5.3817   C.2       1 RES1   0.0000
    31 N31     36.0215 -13.5992   6.6608   N.2       1 RES1   0.0000
    32 C32     38.5920 -10.8564   9.4224   C.2       1 RES1   0.0000
@<TRIPOS>BOND
     1     1     2    1
     2     2     3    2
     3     2     4    2
     4     2     5    1
     5     5     6    2
     6     6     7    1
     7     7     8    2
     8     8     9    1
     9    10     9    1
    10    10    11    1
    11    11    12    2
    12    12    13    1
    13    13    14    2
    14    14    15    1
    15    15    16    1
    16    15    17    2
    17    10    18    1
    18    18    19    2
    19    19    20    1
    20    20    21    2
    21    21    22    1
    22    22    23    2
    23     8    24    1
    24    24    25    1
    25    25    26    1
    26    26    27    2
    27    27    28    1
    28    28    29    2
    29    29    30    1
    30    30    31    2
    31    24    32    2
    32    32     5    1
    33    17    11    1
    34    23    18    1
    35    31    26    1
@<TRIPOS>SUBSTRUCTURE
     1 RES1        1 GROUP             0 ****  ****    0  
@<TRIPOS>MOLECULE
ligand_60
    32    35     1     0     0
SMALL
NO_CHARGES
****
Generated from the CSD

@<TRIPOS>ATOM
     1 C1      31.5257 -14.3255   4.6324   C.3       1 RES1   0.0000
     2 S2      32.6721 -15.0140   5.8453   S.o2      1 RES1   0.0000
     3 O3      32.0800 -16.1898   6.4724   O.2       1 RES1   0.0000
     4 O4      33.9980 -15.0845   5.2824   O.2       1 RES1   0.0000
     5 C5      32.6998 -13.7691   7.0919   C.2       1 RES1   0.0000
     6 C6      33.7529 -12.8428   7.0862   C.2       1 RES1   0.0000
     7 C7      33.7521 -11.8170   8.0237   C.2       1 RES1   0.0000
     8 C8      32.7487 -11.7488   9.0076   C.2       1 RES1   0.0000
     9 N9      32.8126 -10.8171   9.9783   N.2       1 RES1   0.0000
    10 C10     33.7595  -9.7121   9.9578   C.3       1 RES1   0.0000
    11 C11     33.2238  -8.5404   9.1131   C.2       1 RES1   0.0000
    12 C12     32.6011  -7.4266   9.7060   C.2       1 RES1   0.0000
    13 C13     32.1731  -6.3298   8.9123   C.2       1 RES1   0.0000
    14 C14     32.3978  -6.3441   7.5249   C.2       1 RES1   0.0000
    15 C15     33.0742  -7.4404   6.9405   C.2       1 RES1   0.0000
    16 Cl16    33.3814  -7.5215   5.2080   Cl        1 RES1   0.0000
    17 C17     33.4706  -8.5325   7.7305   C.2       1 RES1   0.0000
    18 C18     34.0213  -9.1591  11.3601   C.2       1 RES1   0.0000
    19 C19     33.5266  -9.7718  12.5235   C.2       1 RES1   0.0000
    20 C20     33.8505  -9.2040  13.7689   C.2       1 RES1   0.0000
    21 C21     34.6279  -8.0355  13.8370   C.2       1 RES1   0.0000
    22 C22     35.0911  -7.4608  12.6443   C.2       1 RES1   0.0000
    23 N23     34.7763  -8.0379  11.4588   N.2       1 RES1   0.0000
    24 C24     31.6967 -12.6808   9.0247   C.2       1 RES1   0.0000
    25 N25     30.6943 -12.5132   9.9514   N.2       1 RES1   0.0000
    26 C26     29.6296 -13.3052  10.2756   C.2       1 RES1   0.0000
    27 N27     28.7855 -12.8466  11.2431   N.2       1 RES1   0.0000
    28 C28     27.6863 -13.5533  11.6401   C.2       1 RES1   0.0000
    29 C29     27.4003 -14.7885  11.0248   C.2       1 RES1   0.0000
    30 C30     28.2823 -15.2435  10.0194   C.2       1 RES1   0.0000
    31 N31     29.3632 -14.4933   9.6653   N.2       1 RES1   0.0000
    32 C32     31.6724 -13.6865   8.0360   C.2       1 RES1   0.0000
@<TRIPOS>BOND
     1     1     2    1
     2     2     3    2
     3     2     4    2
     4     2     5    1
     5     5     6    2
     6     6     7    1
     7     7     8    2
     8     8     9    1
     9    10     9    1
    10    10    11    1
    11    11    12    2
    12    12    13    1
    13    13    14    2
    14    14    15    1
    15    15    16    1
    16    15    17    2
    17    10    18    1
    18    18    19    2
    19    19    20    1
    20    20    21    2
    21    21    22    1
    22    22    23    2
    23     8    24    1
    24    24    25    1
    25    25    26    1
    26    26    27    2
    27    27    28    1
    28    28    29    2
    29    29    30    1
    30    30    31    2
    31    24    32    2
    32    32     5    1
    33    17    11    1
    34    23    18    1
    35    31    26    1
@<TRIPOS>SUBSTRUCTURE
     1 RES1        1 GROUP             0 ****  ****    0  
@<TRIPOS>MOLECULE
ligand_61
    32    35     1     0     0
SMALL
NO_CHARGES
****
Generated from the CSD

@<TRIPOS>ATOM
     1 C1      33.8062 -16.2532   6.5068   C.3       1 RES1   0.0000
     2 S2      32.6721 -15.0140   5.8453   S.o2      1 RES1   0.0000
     3 O3      33.2517 -14.3983   4.6573   O.2       1 RES1   0.0000
     4 O4      31.3327 -15.5472   5.8037   O.2       1 RES1   0.0000
     5 C5      32.6998 -13.7691   7.0919   C.2       1 RES1   0.0000
     6 C6      33.7529 -12.8428   7.0862   C.2       1 RES1   0.0000
     7 C7      33.7521 -11.8170   8.0237   C.2       1 RES1   0.0000
     8 C8      32.7487 -11.7488   9.0076   C.2       1 RES1   0.0000
     9 N9      32.8126 -10.8171   9.9783   N.2       1 RES1   0.0000
    10 C10     33.7595  -9.7121   9.9578   C.3       1 RES1   0.0000
    11 C11     33.2238  -8.5404   9.1131   C.2       1 RES1   0.0000
    12 C12     32.6011  -7.4266   9.7060   C.2       1 RES1   0.0000
    13 C13     32.1731  -6.3298   8.9123   C.2       1 RES1   0.0000
    14 C14     32.3978  -6.3441   7.5249   C.2       1 RES1   0.0000
    15 C15     33.0742  -7.4404   6.9405   C.2       1 RES1   0.0000
    16 Cl16    33.3814  -7.5215   5.2080   Cl        1 RES1   0.0000
    17 C17     33.4706  -8.5325   7.7305   C.2       1 RES1   0.0000
    18 C18     34.0213  -9.1591  11.3601   C.2       1 RES1   0.0000
    19 C19     33.5266  -9.7718  12.5235   C.2       1 RES1   0.0000
    20 C20     33.8505  -9.2040  13.7689   C.2       1 RES1   0.0000
    21 C21     34.6279  -8.0355  13.8370   C.2       1 RES1   0.0000
    22 C22     35.0911  -7.4608  12.6443   C.2       1 RES1   0.0000
    23 N23     34.7763  -8.0379  11.4588   N.2       1 RES1   0.0000
    24 C24     31.6967 -12.6808   9.0247   C.2       1 RES1   0.0000
    25 N25     30.6943 -12.5132   9.9514   N.2       1 RES1   0.0000
    26 C26     29.6296 -13.3052  10.2756   C.2       1 RES1   0.0000
    27 N27     28.7855 -12.8466  11.2431   N.2       1 RES1   0.0000
    28 C28     27.6863 -13.5533  11.6401   C.2       1 RES1   0.0000
    29 C29     27.4003 -14.7885  11.0248   C.2       1 RES1   0.0000
    30 C30     28.2823 -15.2435  10.0194   C.2       1 RES1   0.0000
    31 N31     29.3632 -14.4933   9.6653   N.2       1 RES1   0.0000
    32 C32     31.6724 -13.6865   8.0360   C.2       1 RES1   0.0000
@<TRIPOS>BOND
     1     1     2    1
     2     2     3    2
     3     2     4    2
     4     2     5    1
     5     5     6    2
     6     6     7    1
     7     7     8    2
     8     8     9    1
     9    10     9    1
    10    10    11    1
    11    11    12    2
    12    12    13    1
    13    13    14    2
    14    14    15    1
    15    15    16    1
    16    15    17    2
    17    10    18    1
    18    18    19    2
    19    19    20    1
    20    20    21    2
    21    21    22    1
    22    22    23    2
    23     8    24    1
    24    24    25    1
    25    25    26    1
    26    26    27    2
    27    27    28    1
    28    28    29    2
    29    29    30    1
    30    30    31    2
    31    24    32    2
    32    32     5    1
    33    17    11    1
    34    23    18    1
    35    31    26    1
@<TRIPOS>SUBSTRUCTURE
     1 RES1        1 GROUP             0 ****  ****    0  
@<TRIPOS>MOLECULE
ligand_62
    32    35     1     0     0
SMALL
NO_CHARGES
****
Generated from the CSD

@<TRIPOS>ATOM
     1 C1      26.8174 -11.8730  10.5877   C.3       1 RES1   0.0000
     2 S2      27.9776 -12.8816  11.5344   S.o2      1 RES1   0.0000
     3 O3      27.5930 -12.8873  12.9410   O.2       1 RES1   0.0000
     4 O4      28.2219 -14.1251  10.8459   O.2       1 RES1   0.0000
     5 C5      29.4620 -11.9364  11.4475   C.2       1 RES1   0.0000
     6 C6      30.4226 -12.2897  10.4885   C.2       1 RES1   0.0000
     7 C7      31.5684 -11.5132  10.3656   C.2       1 RES1   0.0000
     8 C8      31.7952 -10.4313  11.2361   C.2       1 RES1   0.0000
     9 N9      32.9559  -9.7498  11.1832   N.2       1 RES1   0.0000
    10 C10     33.7723  -9.6632   9.9815   C.3       1 RES1   0.0000
    11 C11     33.4186  -8.4072   9.1623   C.2       1 RES1   0.0000
    12 C12     32.9723  -7.2243   9.7797   C.2       1 RES1   0.0000
    13 C13     32.7139  -6.0597   9.0096   C.2       1 RES1   0.0000
    14 C14     32.9320  -6.0799   7.6212   C.2       1 RES1   0.0000
    15 C15     33.4342  -7.2538   7.0124   C.2       1 RES1   0.0000
    16 Cl16    33.7233  -7.3456   5.2773   Cl        1 RES1   0.0000
    17 C17     33.6620  -8.4090   7.7791   C.2       1 RES1   0.0000
    18 C18     35.2634  -9.5677  10.3104   C.2       1 RES1   0.0000
    19 C19     35.7652  -9.7156  11.6143   C.2       1 RES1   0.0000
    20 C20     37.1565  -9.6437  11.8085   C.2       1 RES1   0.0000
    21 C21     38.0144  -9.4017  10.7223   C.2       1 RES1   0.0000
    22 C22     37.4603  -9.2554   9.4422   C.2       1 RES1   0.0000
    23 N23     36.1172  -9.3443   9.2819   N.2       1 RES1   0.0000
    24 C24     30.8410 -10.0792  12.2063   C.2       1 RES1   0.0000
    25 N25     31.0720  -8.9583  12.9691   N.2       1 RES1   0.0000
    26 C26     30.3911  -8.4411  14.0343   C.2       1 RES1   0.0000
    27 N27     30.8686  -7.2843  14.5751   N.2       1 RES1   0.0000
    28 C28     30.2621  -6.6765  15.6372   C.2       1 RES1   0.0000
    29 C29     29.0974  -7.2484  16.1872   C.2       1 RES1   0.0000
    30 C30     28.6135  -8.4429  15.6086   C.2       1 RES1   0.0000
    31 N31     29.2619  -9.0026  14.5489   N.2       1 RES1   0.0000
    32 C32     29.6541 -10.8369  12.2889   C.2       1 RES1   0.0000
@<TRIPOS>BOND
     1     1     2    1
     2     2     3    2
     3     2     4    2
     4     2     5    1
     5     5     6    2
     6     6     7    1
     7     7     8    2
     8     8     9    1
     9    10     9    1
    10    10    11    1
    11    11    12    2
    12    12    13    1
    13    13    14    2
    14    14    15    1
    15    15    16    1
    16    15    17    2
    17    10    18    1
    18    18    19    2
    19    19    20    1
    20    20    21    2
    21    21    22    1
    22    22    23    2
    23     8    24    1
    24    24    25    1
    25    25    26    1
    26    26    27    2
    27    27    28    1
    28    28    29    2
    29    29    30    1
    30    30    31    2
    31    24    32    2
    32    32     5    1
    33    17    11    1
    34    23    18    1
    35    31    26    1
@<TRIPOS>SUBSTRUCTURE
     1 RES1        1 GROUP             0 ****  ****    0  
@<TRIPOS>MOLECULE
ligand_63
    32    35     1     0     0
SMALL
NO_CHARGES
****
Generated from the CSD

@<TRIPOS>ATOM
     1 C1      28.4810 -14.3083  12.5196   C.3       1 RES1   0.0000
     2 S2      27.9776 -12.8816  11.5344   S.o2      1 RES1   0.0000
     3 O3      27.6941 -13.3011  10.1669   O.2       1 RES1   0.0000
     4 O4      27.0133 -12.0964  12.2650   O.2       1 RES1   0.0000
     5 C5      29.4620 -11.9364  11.4475   C.2       1 RES1   0.0000
     6 C6      30.4226 -12.2897  10.4885   C.2       1 RES1   0.0000
     7 C7      31.5684 -11.5132  10.3656   C.2       1 RES1   0.0000
     8 C8      31.7952 -10.4313  11.2361   C.2       1 RES1   0.0000
     9 N9      32.9559  -9.7498  11.1832   N.2       1 RES1   0.0000
    10 C10     33.7723  -9.6632   9.9815   C.3       1 RES1   0.0000
    11 C11     33.4186  -8.4072   9.1623   C.2       1 RES1   0.0000
    12 C12     32.9723  -7.2243   9.7797   C.2       1 RES1   0.0000
    13 C13     32.7139  -6.0597   9.0096   C.2       1 RES1   0.0000
    14 C14     32.9320  -6.0799   7.6212   C.2       1 RES1   0.0000
    15 C15     33.4342  -7.2538   7.0124   C.2       1 RES1   0.0000
    16 Cl16    33.7233  -7.3456   5.2773   Cl        1 RES1   0.0000
    17 C17     33.6620  -8.4090   7.7791   C.2       1 RES1   0.0000
    18 C18     35.2634  -9.5677  10.3104   C.2       1 RES1   0.0000
    19 C19     35.7652  -9.7156  11.6143   C.2       1 RES1   0.0000
    20 C20     37.1565  -9.6437  11.8085   C.2       1 RES1   0.0000
    21 C21     38.0144  -9.4017  10.7223   C.2       1 RES1   0.0000
    22 C22     37.4603  -9.2554   9.4422   C.2       1 RES1   0.0000
    23 N23     36.1172  -9.3443   9.2819   N.2       1 RES1   0.0000
    24 C24     30.8410 -10.0792  12.2063   C.2       1 RES1   0.0000
    25 N25     31.0720  -8.9583  12.9691   N.2       1 RES1   0.0000
    26 C26     30.3911  -8.4411  14.0343   C.2       1 RES1   0.0000
    27 N27     30.8686  -7.2843  14.5751   N.2       1 RES1   0.0000
    28 C28     30.2621  -6.6765  15.6372   C.2       1 RES1   0.0000
    29 C29     29.0974  -7.2484  16.1872   C.2       1 RES1   0.0000
    30 C30     28.6135  -8.4429  15.6086   C.2       1 RES1   0.0000
    31 N31     29.2619  -9.0026  14.5489   N.2       1 RES1   0.0000
    32 C32     29.6541 -10.8369  12.2889   C.2       1 RES1   0.0000
@<TRIPOS>BOND
     1     1     2    1
     2     2     3    2
     3     2     4    2
     4     2     5    1
     5     5     6    2
     6     6     7    1
     7     7     8    2
     8     8     9    1
     9    10     9    1
    10    10    11    1
    11    11    12    2
    12    12    13    1
    13    13    14    2
    14    14    15    1
    15    15    16    1
    16    15    17    2
    17    10    18    1
    18    18    19    2
    19    19    20    1
    20    20    21    2
    21    21    22    1
    22    22    23    2
    23     8    24    1
    24    24    25    1
    25    25    26    1
    26    26    27    2
    27    27    28    1
    28    28    29    2
    29    29    30    1
    30    30    31    2
    31    24    32    2
    32    32     5    1
    33    17    11    1
    34    23    18    1
    35    31    26    1
@<TRIPOS>SUBSTRUCTURE
     1 RES1        1 GROUP             0 ****  ****    0  
@<TRIPOS>MOLECULE
ligand_64
    32    35     1     0     0
SMALL
NO_CHARGES
****
Generated from the CSD

@<TRIPOS>ATOM
     1 C1      26.4606 -10.3342  11.0656   C.3       1 RES1   0.0000
     2 S2      27.4518 -11.8380  10.9400   S.o2      1 RES1   0.0000
     3 O3      27.2671 -12.6523  12.1354   O.2       1 RES1   0.0000
     4 O4      27.2896 -12.4247   9.6325   O.2       1 RES1   0.0000
     5 C5      29.0981 -11.2173  11.0329   C.2       1 RES1   0.0000
     6 C6      29.8068 -11.0246   9.8380   C.2       1 RES1   0.0000
     7 C7      31.0818 -10.4747   9.8927   C.2       1 RES1   0.0000
     8 C8      31.6807 -10.1809  11.1315   C.2       1 RES1   0.0000
     9 N9      32.9559  -9.7498  11.1832   N.2       1 RES1   0.0000
    10 C10     33.8615  -9.8096  10.0456   C.3       1 RES1   0.0000
    11 C11     33.6005  -8.6466   9.0694   C.2       1 RES1   0.0000
    12 C12     33.1311  -7.3979   9.5170   C.2       1 RES1   0.0000
    13 C13     32.9592  -6.3216   8.6070   C.2       1 RES1   0.0000
    14 C14     33.2866  -6.4962   7.2514   C.2       1 RES1   0.0000
    15 C15     33.8110  -7.7356   6.8158   C.2       1 RES1   0.0000
    16 Cl16    34.2352  -8.0201   5.1302   Cl        1 RES1   0.0000
    17 C17     33.9530  -8.8026   7.7189   C.2       1 RES1   0.0000
    18 C18     35.3258  -9.7018  10.4757   C.2       1 RES1   0.0000
    19 C19     36.3500 -10.4592   9.8830   C.2       1 RES1   0.0000
    20 C20     37.6702 -10.2633  10.3269   C.2       1 RES1   0.0000
    21 C21     37.9454  -9.3498  11.3584   C.2       1 RES1   0.0000
    22 C22     36.8847  -8.6239  11.9200   C.2       1 RES1   0.0000
    23 N23     35.6242  -8.8219  11.4624   N.2       1 RES1   0.0000
    24 C24     30.9794 -10.3820  12.3328   C.2       1 RES1   0.0000
    25 N25     31.5776  -9.9924  13.5084   N.2       1 RES1   0.0000
    26 C26     31.5342 -10.5355  14.7610   C.2       1 RES1   0.0000
    27 N27     30.7873 -11.6644  14.9236   N.2       1 RES1   0.0000
    28 C28     30.6797 -12.2943  16.1306   C.2       1 RES1   0.0000
    29 C29     31.3713 -11.7764  17.2439   C.2       1 RES1   0.0000
    30 C30     32.1460 -10.6103  17.0541   C.2       1 RES1   0.0000
    31 N31     32.2153 -10.0264  15.8250   N.2       1 RES1   0.0000
    32 C32     29.6642 -10.8878  12.2676   C.2       1 RES1   0.0000
@<TRIPOS>BOND
     1     1     2    1
     2     2     3    2
     3     2     4    2
     4     2     5    1
     5     5     6    2
     6     6     7    1
     7     7     8    2
     8     8     9    1
     9    10     9    1
    10    10    11    1
    11    11    12    2
    12    12    13    1
    13    13    14    2
    14    14    15    1
    15    15    16    1
    16    15    17    2
    17    10    18    1
    18    18    19    2
    19    19    20    1
    20    20    21    2
    21    21    22    1
    22    22    23    2
    23     8    24    1
    24    24    25    1
    25    25    26    1
    26    26    27    2
    27    27    28    1
    28    28    29    2
    29    29    30    1
    30    30    31    2
    31    24    32    2
    32    32     5    1
    33    17    11    1
    34    23    18    1
    35    31    26    1
@<TRIPOS>SUBSTRUCTURE
     1 RES1        1 GROUP             0 ****  ****    0  
@<TRIPOS>MOLECULE
ligand_65
    32    35     1     0     0
SMALL
NO_CHARGES
****
Generated from the CSD

@<TRIPOS>ATOM
     1 C1      27.7145 -13.6163  10.7732   C.3       1 RES1   0.0000
     2 S2      27.4518 -11.8380  10.9400   S.o2      1 RES1   0.0000
     3 O3      26.8956 -11.3029   9.7027   O.2       1 RES1   0.0000
     4 O4      26.8156 -11.5522  12.2024   O.2       1 RES1   0.0000
     5 C5      29.0981 -11.2173  11.0329   C.2       1 RES1   0.0000
     6 C6      29.8068 -11.0246   9.8380   C.2       1 RES1   0.0000
     7 C7      31.0818 -10.4747   9.8927   C.2       1 RES1   0.0000
     8 C8      31.6807 -10.1809  11.1315   C.2       1 RES1   0.0000
     9 N9      32.9559  -9.7498  11.1832   N.2       1 RES1   0.0000
    10 C10     33.8615  -9.8096  10.0456   C.3       1 RES1   0.0000
    11 C11     33.6005  -8.6466   9.0694   C.2       1 RES1   0.0000
    12 C12     33.1311  -7.3979   9.5170   C.2       1 RES1   0.0000
    13 C13     32.9592  -6.3216   8.6070   C.2       1 RES1   0.0000
    14 C14     33.2866  -6.4962   7.2514   C.2       1 RES1   0.0000
    15 C15     33.8110  -7.7356   6.8158   C.2       1 RES1   0.0000
    16 Cl16    34.2352  -8.0201   5.1302   Cl        1 RES1   0.0000
    17 C17     33.9530  -8.8026   7.7189   C.2       1 RES1   0.0000
    18 C18     35.3258  -9.7018  10.4757   C.2       1 RES1   0.0000
    19 C19     36.3500 -10.4592   9.8830   C.2       1 RES1   0.0000
    20 C20     37.6702 -10.2633  10.3269   C.2       1 RES1   0.0000
    21 C21     37.9454  -9.3498  11.3584   C.2       1 RES1   0.0000
    22 C22     36.8847  -8.6239  11.9200   C.2       1 RES1   0.0000
    23 N23     35.6242  -8.8219  11.4624   N.2       1 RES1   0.0000
    24 C24     30.9794 -10.3820  12.3328   C.2       1 RES1   0.0000
    25 N25     31.5776  -9.9924  13.5084   N.2       1 RES1   0.0000
    26 C26     31.5342 -10.5355  14.7610   C.2       1 RES1   0.0000
    27 N27     30.7873 -11.6644  14.9236   N.2       1 RES1   0.0000
    28 C28     30.6797 -12.2943  16.1306   C.2       1 RES1   0.0000
    29 C29     31.3713 -11.7764  17.2439   C.2       1 RES1   0.0000
    30 C30     32.1460 -10.6103  17.0541   C.2       1 RES1   0.0000
    31 N31     32.2153 -10.0264  15.8250   N.2       1 RES1   0.0000
    32 C32     29.6642 -10.8878  12.2676   C.2       1 RES1   0.0000
@<TRIPOS>BOND
     1     1     2    1
     2     2     3    2
     3     2     4    2
     4     2     5    1
     5     5     6    2
     6     6     7    1
     7     7     8    2
     8     8     9    1
     9    10     9    1
    10    10    11    1
    11    11    12    2
    12    12    13    1
    13    13    14    2
    14    14    15    1
    15    15    16    1
    16    15    17    2
    17    10    18    1
    18    18    19    2
    19    19    20    1
    20    20    21    2
    21    21    22    1
    22    22    23    2
    23     8    24    1
    24    24    25    1
    25    25    26    1
    26    26    27    2
    27    27    28    1
    28    28    29    2
    29    29    30    1
    30    30    31    2
    31    24    32    2
    32    32     5    1
    33    17    11    1
    34    23    18    1
    35    31    26    1
@<TRIPOS>SUBSTRUCTURE
     1 RES1        1 GROUP             0 ****  ****    0  
@<TRIPOS>MOLECULE
ligand_66
    32    35     1     0     0
SMALL
NO_CHARGES
****
Generated from the CSD

@<TRIPOS>ATOM
     1 C1      35.4107  -9.3330  17.2930   C.3       1 RES1   0.0000
     2 S2      35.7013 -10.9232  16.4890   S.o2      1 RES1   0.0000
     3 O3      37.0916 -11.3227  16.6732   O.2       1 RES1   0.0000
     4 O4      34.6360 -11.8393  16.8141   O.2       1 RES1   0.0000
     5 C5      35.5408 -10.5208  14.7812   C.2       1 RES1   0.0000
     6 C6      34.3163 -10.7781  14.1475   C.2       1 RES1   0.0000
     7 C7      34.1549 -10.4059  12.8184   C.2       1 RES1   0.0000
     8 C8      35.2253  -9.8440  12.0986   C.2       1 RES1   0.0000
     9 N9      35.0965  -9.5853  10.7830   N.2       1 RES1   0.0000
    10 C10     33.8190  -9.6241  10.0870   C.3       1 RES1   0.0000
    11 C11     33.7364  -8.5151   9.0207   C.2       1 RES1   0.0000
    12 C12     33.4763  -7.1762   9.3664   C.2       1 RES1   0.0000
    13 C13     33.4685  -6.1613   8.3733   C.2       1 RES1   0.0000
    14 C14     33.7502  -6.4924   7.0367   C.2       1 RES1   0.0000
    15 C15     34.0663  -7.8299   6.7024   C.2       1 RES1   0.0000
    16 Cl16    34.4227  -8.3106   5.0458   Cl        1 RES1   0.0000
    17 C17     34.0459  -8.8313   7.6878   C.2       1 RES1   0.0000
    18 C18     33.6069 -10.9519   9.3571   C.2       1 RES1   0.0000
    19 C19     32.3421 -11.5462   9.2121   C.2       1 RES1   0.0000
    20 C20     32.2473 -12.7524   8.4948   C.2       1 RES1   0.0000
    21 C21     33.3995 -13.3559   7.9632   C.2       1 RES1   0.0000
    22 C22     34.6385 -12.7235   8.1424   C.2       1 RES1   0.0000
    23 N23     34.6985 -11.5538   8.8251   N.2       1 RES1   0.0000
    24 C24     36.4582  -9.5937  12.7256   C.2       1 RES1   0.0000
    25 N25     37.4397  -8.9594  12.0005   N.2       1 RES1   0.0000
    26 C26     38.7467  -8.6956  12.2973   C.2       1 RES1   0.0000
    27 N27     39.4724  -8.0194  11.3620   N.2       1 RES1   0.0000
    28 C28     40.7850  -7.6968  11.5575   C.2       1 RES1   0.0000
    29 C29     41.4118  -8.0573  12.7672   C.2       1 RES1   0.0000
    30 C30     40.6416  -8.7509  13.7271   C.2       1 RES1   0.0000
    31 N31     39.3351  -9.0443  13.4751   N.2       1 RES1   0.0000
    32 C32     36.5980  -9.9220  14.0903   C.2       1 RES1   0.0000
@<TRIPOS>BOND
     1     1     2    1
     2     2     3    2
     3     2     4    2
     4     2     5    1
     5     5     6    2
     6     6     7    1
     7     7     8    2
     8     8     9    1
     9    10     9    1
    10    10    11    1
    11    11    12    2
    12    12    13    1
    13    13    14    2
    14    14    15    1
    15    15    16    1
    16    15    17    2
    17    10    18    1
    18    18    19    2
    19    19    20    1
    20    20    21    2
    21    21    22    1
    22    22    23    2
    23     8    24    1
    24    24    25    1
    25    25    26    1
    26    26    27    2
    27    27    28    1
    28    28    29    2
    29    29    30    1
    30    30    31    2
    31    24    32    2
    32    32     5    1
    33    17    11    1
    34    23    18    1
    35    31    26    1
@<TRIPOS>SUBSTRUCTURE
     1 RES1        1 GROUP             0 ****  ****    0  
@<TRIPOS>MOLECULE
ligand_67
    32    35     1     0     0
SMALL
NO_CHARGES
****
Generated from the CSD

@<TRIPOS>ATOM
     1 C1      36.0630 -12.6913  16.4406   C.3       1 RES1   0.0000
     2 S2      35.7013 -10.9232  16.4890   S.o2      1 RES1   0.0000
     3 O3      34.3833 -10.7047  17.0734   O.2       1 RES1   0.0000
     4 O4      36.8445 -10.2021  16.9922   O.2       1 RES1   0.0000
     5 C5      35.5408 -10.5208  14.7812   C.2       1 RES1   0.0000
     6 C6      34.3163 -10.7781  14.1475   C.2       1 RES1   0.0000
     7 C7      34.1549 -10.4059  12.8184   C.2       1 RES1   0.0000
     8 C8      35.2253  -9.8440  12.0986   C.2       1 RES1   0.0000
     9 N9      35.0965  -9.5853  10.7830   N.2       1 RES1   0.0000
    10 C10     33.8190  -9.6241  10.0870   C.3       1 RES1   0.0000
    11 C11     33.7364  -8.5151   9.0207   C.2       1 RES1   0.0000
    12 C12     33.4763  -7.1762   9.3664   C.2       1 RES1   0.0000
    13 C13     33.4685  -6.1613   8.3733   C.2       1 RES1   0.0000
    14 C14     33.7502  -6.4924   7.0367   C.2       1 RES1   0.0000
    15 C15     34.0663  -7.8299   6.7024   C.2       1 RES1   0.0000
    16 Cl16    34.4227  -8.3106   5.0458   Cl        1 RES1   0.0000
    17 C17     34.0459  -8.8313   7.6878   C.2       1 RES1   0.0000
    18 C18     33.6069 -10.9519   9.3571   C.2       1 RES1   0.0000
    19 C19     32.3421 -11.5462   9.2121   C.2       1 RES1   0.0000
    20 C20     32.2473 -12.7524   8.4948   C.2       1 RES1   0.0000
    21 C21     33.3995 -13.3559   7.9632   C.2       1 RES1   0.0000
    22 C22     34.6385 -12.7235   8.1424   C.2       1 RES1   0.0000
    23 N23     34.6985 -11.5538   8.8251   N.2       1 RES1   0.0000
    24 C24     36.4582  -9.5937  12.7256   C.2       1 RES1   0.0000
    25 N25     37.4397  -8.9594  12.0005   N.2       1 RES1   0.0000
    26 C26     38.7467  -8.6956  12.2973   C.2       1 RES1   0.0000
    27 N27     39.4724  -8.0194  11.3620   N.2       1 RES1   0.0000
    28 C28     40.7850  -7.6968  11.5575   C.2       1 RES1   0.0000
    29 C29     41.4118  -8.0573  12.7672   C.2       1 RES1   0.0000
    30 C30     40.6416  -8.7509  13.7271   C.2       1 RES1   0.0000
    31 N31     39.3351  -9.0443  13.4751   N.2       1 RES1   0.0000
    32 C32     36.5980  -9.9220  14.0903   C.2       1 RES1   0.0000
@<TRIPOS>BOND
     1     1     2    1
     2     2     3    2
     3     2     4    2
     4     2     5    1
     5     5     6    2
     6     6     7    1
     7     7     8    2
     8     8     9    1
     9    10     9    1
    10    10    11    1
    11    11    12    2
    12    12    13    1
    13    13    14    2
    14    14    15    1
    15    15    16    1
    16    15    17    2
    17    10    18    1
    18    18    19    2
    19    19    20    1
    20    20    21    2
    21    21    22    1
    22    22    23    2
    23     8    24    1
    24    24    25    1
    25    25    26    1
    26    26    27    2
    27    27    28    1
    28    28    29    2
    29    29    30    1
    30    30    31    2
    31    24    32    2
    32    32     5    1
    33    17    11    1
    34    23    18    1
    35    31    26    1
@<TRIPOS>SUBSTRUCTURE
     1 RES1        1 GROUP             0 ****  ****    0  
@<TRIPOS>MOLECULE
ligand_68
    32    35     1     0     0
SMALL
NO_CHARGES
****
Generated from the CSD

@<TRIPOS>ATOM
     1 C1      33.9295 -17.1028   8.6419   C.3       1 RES1   0.0000
     2 S2      33.8956 -16.5951  10.3741   S.o2      1 RES1   0.0000
     3 O3      32.7402 -17.1860  11.0393   O.2       1 RES1   0.0000
     4 O4      35.2104 -16.7307  10.9510   O.2       1 RES1   0.0000
     5 C5      33.5517 -14.8709  10.2585   C.2       1 RES1   0.0000
     6 C6      34.6235 -13.9700  10.3402   C.2       1 RES1   0.0000
     7 C7      34.3745 -12.6117  10.1854   C.2       1 RES1   0.0000
     8 C8      33.0591 -12.1407  10.0194   C.2       1 RES1   0.0000
     9 N9      32.8126 -10.8171   9.9783   N.2       1 RES1   0.0000
    10 C10     33.8621  -9.8171   9.8492   C.3       1 RES1   0.0000
    11 C11     33.4030  -8.6453   8.9606   C.2       1 RES1   0.0000
    12 C12     33.0137  -7.4099   9.5105   C.2       1 RES1   0.0000
    13 C13     32.6559  -6.3242   8.6683   C.2       1 RES1   0.0000
    14 C14     32.7171  -6.4757   7.2723   C.2       1 RES1   0.0000
    15 C15     33.1626  -7.7010   6.7238   C.2       1 RES1   0.0000
    16 Cl16    33.2565  -7.9565   4.9836   Cl        1 RES1   0.0000
    17 C17     33.4897  -8.7778   7.5652   C.2       1 RES1   0.0000
    18 C18     34.2481  -9.2172  11.2027   C.2       1 RES1   0.0000
    19 C19     35.5668  -8.8560  11.5258   C.2       1 RES1   0.0000
    20 C20     35.8139  -8.2810  12.7855   C.2       1 RES1   0.0000
    21 C21     34.7652  -8.1013  13.7032   C.2       1 RES1   0.0000
    22 C22     33.4682  -8.4852  13.3320   C.2       1 RES1   0.0000
    23 N23     33.2564  -9.0230  12.1058   N.2       1 RES1   0.0000
    24 C24     31.9797 -13.0382   9.9475   C.2       1 RES1   0.0000
    25 N25     30.7272 -12.5302   9.6930   N.2       1 RES1   0.0000
    26 C26     29.4999 -13.1297   9.6840   C.2       1 RES1   0.0000
    27 N27     28.4284 -12.3478   9.3690   N.2       1 RES1   0.0000
    28 C28     27.1572 -12.8450   9.3232   C.2       1 RES1   0.0000
    29 C29     26.9398 -14.2109   9.5938   C.2       1 RES1   0.0000
    30 C30     28.0633 -15.0066   9.9109   C.2       1 RES1   0.0000
    31 N31     29.3082 -14.4536   9.9404   N.2       1 RES1   0.0000
    32 C32     32.2455 -14.4198  10.0490   C.2       1 RES1   0.0000
@<TRIPOS>BOND
     1     1     2    1
     2     2     3    2
     3     2     4    2
     4     2     5    1
     5     5     6    2
     6     6     7    1
     7     7     8    2
     8     8     9    1
     9    10     9    1
    10    10    11    1
    11    11    12    2
    12    12    13    1
    13    13    14    2
    14    14    15    1
    15    15    16    1
    16    15    17    2
    17    10    18    1
    18    18    19    2
    19    19    20    1
    20    20    21    2
    21    21    22    1
    22    22    23    2
    23     8    24    1
    24    24    25    1
    25    25    26    1
    26    26    27    2
    27    27    28    1
    28    28    29    2
    29    29    30    1
    30    30    31    2
    31    24    32    2
    32    32     5    1
    33    17    11    1
    34    23    18    1
    35    31    26    1
@<TRIPOS>SUBSTRUCTURE
     1 RES1        1 GROUP             0 ****  ****    0  
@<TRIPOS>MOLECULE
ligand_69
    32    35     1     0     0
SMALL
NO_CHARGES
****
Generated from the CSD

@<TRIPOS>ATOM
     1 C1      34.0138 -16.8502  12.1575   C.3       1 RES1   0.0000
     2 S2      33.8956 -16.5951  10.3741   S.o2      1 RES1   0.0000
     3 O3      35.2056 -16.7800   9.7610   O.2       1 RES1   0.0000
     4 O4      32.7475 -17.2956   9.8533   O.2       1 RES1   0.0000
     5 C5      33.5517 -14.8709  10.2585   C.2       1 RES1   0.0000
     6 C6      34.6235 -13.9700  10.3402   C.2       1 RES1   0.0000
     7 C7      34.3745 -12.6117  10.1854   C.2       1 RES1   0.0000
     8 C8      33.0591 -12.1407  10.0194   C.2       1 RES1   0.0000
     9 N9      32.8126 -10.8171   9.9783   N.2       1 RES1   0.0000
    10 C10     33.8621  -9.8171   9.8492   C.3       1 RES1   0.0000
    11 C11     33.4030  -8.6453   8.9606   C.2       1 RES1   0.0000
    12 C12     33.0137  -7.4099   9.5105   C.2       1 RES1   0.0000
    13 C13     32.6559  -6.3242   8.6683   C.2       1 RES1   0.0000
    14 C14     32.7171  -6.4757   7.2723   C.2       1 RES1   0.0000
    15 C15     33.1626  -7.7010   6.7238   C.2       1 RES1   0.0000
    16 Cl16    33.2565  -7.9565   4.9836   Cl        1 RES1   0.0000
    17 C17     33.4897  -8.7778   7.5652   C.2       1 RES1   0.0000
    18 C18     34.2481  -9.2172  11.2027   C.2       1 RES1   0.0000
    19 C19     35.5668  -8.8560  11.5258   C.2       1 RES1   0.0000
    20 C20     35.8139  -8.2810  12.7855   C.2       1 RES1   0.0000
    21 C21     34.7652  -8.1013  13.7032   C.2       1 RES1   0.0000
    22 C22     33.4682  -8.4852  13.3320   C.2       1 RES1   0.0000
    23 N23     33.2564  -9.0230  12.1058   N.2       1 RES1   0.0000
    24 C24     31.9797 -13.0382   9.9475   C.2       1 RES1   0.0000
    25 N25     30.7272 -12.5302   9.6930   N.2       1 RES1   0.0000
    26 C26     29.4999 -13.1297   9.6840   C.2       1 RES1   0.0000
    27 N27     28.4284 -12.3478   9.3690   N.2       1 RES1   0.0000
    28 C28     27.1572 -12.8450   9.3232   C.2       1 RES1   0.0000
    29 C29     26.9398 -14.2109   9.5938   C.2       1 RES1   0.0000
    30 C30     28.0633 -15.0066   9.9109   C.2       1 RES1   0.0000
    31 N31     29.3082 -14.4536   9.9404   N.2       1 RES1   0.0000
    32 C32     32.2455 -14.4198  10.0490   C.2       1 RES1   0.0000
@<TRIPOS>BOND
     1     1     2    1
     2     2     3    2
     3     2     4    2
     4     2     5    1
     5     5     6    2
     6     6     7    1
     7     7     8    2
     8     8     9    1
     9    10     9    1
    10    10    11    1
    11    11    12    2
    12    12    13    1
    13    13    14    2
    14    14    15    1
    15    15    16    1
    16    15    17    2
    17    10    18    1
    18    18    19    2
    19    19    20    1
    20    20    21    2
    21    21    22    1
    22    22    23    2
    23     8    24    1
    24    24    25    1
    25    25    26    1
    26    26    27    2
    27    27    28    1
    28    28    29    2
    29    29    30    1
    30    30    31    2
    31    24    32    2
    32    32     5    1
    33    17    11    1
    34    23    18    1
    35    31    26    1
@<TRIPOS>SUBSTRUCTURE
     1 RES1        1 GROUP             0 ****  ****    0  
@<TRIPOS>MOLECULE
ligand_70
    32    35     1     0     0
SMALL
NO_CHARGES
****
Generated from the CSD

@<TRIPOS>ATOM
     1 C1      30.3421  -5.6433  15.0846   C.3       1 RES1   0.0000
     2 S2      30.3291  -7.4311  15.3363   S.o2      1 RES1   0.0000
     3 O3      30.8885  -7.7495  16.6448   O.2       1 RES1   0.0000
     4 O4      29.0511  -7.9725  14.9445   O.2       1 RES1   0.0000
     5 C5      31.5155  -7.9895  14.1594   C.2       1 RES1   0.0000
     6 C6      31.0549  -8.4745  12.9266   C.2       1 RES1   0.0000
     7 C7      31.9822  -8.8571  11.9649   C.2       1 RES1   0.0000
     8 C8      33.3600  -8.8251  12.2480   C.2       1 RES1   0.0000
     9 N9      34.2478  -9.2984  11.3523   N.2       1 RES1   0.0000
    10 C10     33.8663  -9.7747  10.0311   C.3       1 RES1   0.0000
    11 C11     33.7122  -8.6021   9.0438   C.2       1 RES1   0.0000
    12 C12     33.3928  -7.3040   9.4831   C.2       1 RES1   0.0000
    13 C13     33.3192  -6.2264   8.5614   C.2       1 RES1   0.0000
    14 C14     33.5946  -6.4524   7.2018   C.2       1 RES1   0.0000
    15 C15     33.9700  -7.7471   6.7733   C.2       1 RES1   0.0000
    16 Cl16    34.3222  -8.0970   5.0834   Cl        1 RES1   0.0000
    17 C17     34.0148  -8.8122   7.6886   C.2       1 RES1   0.0000
    18 C18     34.9184 -10.7135   9.4373   C.2       1 RES1   0.0000
    19 C19     36.2782 -10.3718   9.3476   C.2       1 RES1   0.0000
    20 C20     37.1726 -11.3180   8.8155   C.2       1 RES1   0.0000
    21 C21     36.7042 -12.5624   8.3613   C.2       1 RES1   0.0000
    22 C22     35.3356 -12.8501   8.4683   C.2       1 RES1   0.0000
    23 N23     34.4985 -11.9253   8.9991   N.2       1 RES1   0.0000
    24 C24     33.8269  -8.3501  13.4858   C.2       1 RES1   0.0000
    25 N25     35.1859  -8.2547  13.6752   N.2       1 RES1   0.0000
    26 C26     35.9179  -7.9376  14.7840   C.2       1 RES1   0.0000
    27 N27     37.2739  -7.9086  14.6463   N.2       1 RES1   0.0000
    28 C28     38.1013  -7.5969  15.6872   C.2       1 RES1   0.0000
    29 C29     37.5432  -7.2792  16.9417   C.2       1 RES1   0.0000
    30 C30     36.1360  -7.3073  17.0629   C.2       1 RES1   0.0000
    31 N31     35.3620  -7.6253  15.9876   N.2       1 RES1   0.0000
    32 C32     32.8830  -7.9102  14.4372   C.2       1 RES1   0.0000
@<TRIPOS>BOND
     1     1     2    1
     2     2     3    2
     3     2     4    2
     4     2     5    1
     5     5     6    2
     6     6     7    1
     7     7     8    2
     8     8     9    1
     9    10     9    1
    10    10    11    1
    11    11    12    2
    12    12    13    1
    13    13    14    2
    14    14    15    1
    15    15    16    1
    16    15    17    2
    17    10    18    1
    18    18    19    2
    19    19    20    1
    20    20    21    2
    21    21    22    1
    22    22    23    2
    23     8    24    1
    24    24    25    1
    25    25    26    1
    26    26    27    2
    27    27    28    1
    28    28    29    2
    29    29    30    1
    30    30    31    2
    31    24    32    2
    32    32     5    1
    33    17    11    1
    34    23    18    1
    35    31    26    1
@<TRIPOS>SUBSTRUCTURE
     1 RES1        1 GROUP             0 ****  ****    0  
@<TRIPOS>MOLECULE
ligand_71
    32    35     1     0     0
SMALL
NO_CHARGES
****
Generated from the CSD

@<TRIPOS>ATOM
     1 C1      29.7913  -8.9717  16.1087   C.3       1 RES1   0.0000
     2 S2      30.3291  -7.4311  15.3363   S.o2      1 RES1   0.0000
     3 O3      29.2359  -6.8613  14.5574   O.2       1 RES1   0.0000
     4 O4      31.0318  -6.6188  16.2988   O.2       1 RES1   0.0000
     5 C5      31.5155  -7.9895  14.1594   C.2       1 RES1   0.0000
     6 C6      31.0549  -8.4745  12.9266   C.2       1 RES1   0.0000
     7 C7      31.9822  -8.8571  11.9649   C.2       1 RES1   0.0000
     8 C8      33.3600  -8.8251  12.2480   C.2       1 RES1   0.0000
     9 N9      34.2478  -9.2984  11.3523   N.2       1 RES1   0.0000
    10 C10     33.8663  -9.7747  10.0311   C.3       1 RES1   0.0000
    11 C11     33.7122  -8.6021   9.0438   C.2       1 RES1   0.0000
    12 C12     33.3928  -7.3040   9.4831   C.2       1 RES1   0.0000
    13 C13     33.3192  -6.2264   8.5614   C.2       1 RES1   0.0000
    14 C14     33.5946  -6.4524   7.2018   C.2       1 RES1   0.0000
    15 C15     33.9700  -7.7471   6.7733   C.2       1 RES1   0.0000
    16 Cl16    34.3222  -8.0970   5.0834   Cl        1 RES1   0.0000
    17 C17     34.0148  -8.8122   7.6886   C.2       1 RES1   0.0000
    18 C18     34.9184 -10.7135   9.4373   C.2       1 RES1   0.0000
    19 C19     36.2782 -10.3718   9.3476   C.2       1 RES1   0.0000
    20 C20     37.1726 -11.3180   8.8155   C.2       1 RES1   0.0000
    21 C21     36.7042 -12.5624   8.3613   C.2       1 RES1   0.0000
    22 C22     35.3356 -12.8501   8.4683   C.2       1 RES1   0.0000
    23 N23     34.4985 -11.9253   8.9991   N.2       1 RES1   0.0000
    24 C24     33.8269  -8.3501  13.4858   C.2       1 RES1   0.0000
    25 N25     35.1859  -8.2547  13.6752   N.2       1 RES1   0.0000
    26 C26     35.9179  -7.9376  14.7840   C.2       1 RES1   0.0000
    27 N27     37.2739  -7.9086  14.6463   N.2       1 RES1   0.0000
    28 C28     38.1013  -7.5969  15.6872   C.2       1 RES1   0.0000
    29 C29     37.5432  -7.2792  16.9417   C.2       1 RES1   0.0000
    30 C30     36.1360  -7.3073  17.0629   C.2       1 RES1   0.0000
    31 N31     35.3620  -7.6253  15.9876   N.2       1 RES1   0.0000
    32 C32     32.8830  -7.9102  14.4372   C.2       1 RES1   0.0000
@<TRIPOS>BOND
     1     1     2    1
     2     2     3    2
     3     2     4    2
     4     2     5    1
     5     5     6    2
     6     6     7    1
     7     7     8    2
     8     8     9    1
     9    10     9    1
    10    10    11    1
    11    11    12    2
    12    12    13    1
    13    13    14    2
    14    14    15    1
    15    15    16    1
    16    15    17    2
    17    10    18    1
    18    18    19    2
    19    19    20    1
    20    20    21    2
    21    21    22    1
    22    22    23    2
    23     8    24    1
    24    24    25    1
    25    25    26    1
    26    26    27    2
    27    27    28    1
    28    28    29    2
    29    29    30    1
    30    30    31    2
    31    24    32    2
    32    32     5    1
    33    17    11    1
    34    23    18    1
    35    31    26    1
@<TRIPOS>SUBSTRUCTURE
     1 RES1        1 GROUP             0 ****  ****    0  
@<TRIPOS>MOLECULE
ligand_72
    32    35     1     0     0
SMALL
NO_CHARGES
****
Generated from the CSD

@<TRIPOS>ATOM
     1 C1      37.2014 -13.2175   4.3547   C.3       1 RES1   0.0000
     2 S2      37.7440 -13.6630   6.0180   S.o2      1 RES1   0.0000
     3 O3      37.6012 -15.1007   6.2154   O.2       1 RES1   0.0000
     4 O4      38.9962 -13.0125   6.3163   O.2       1 RES1   0.0000
     5 C5      36.5128 -12.9155   7.0327   C.2       1 RES1   0.0000
     6 C6      36.7929 -11.6698   7.6133   C.2       1 RES1   0.0000
     7 C7      35.8069 -11.0392   8.3623   C.2       1 RES1   0.0000
     8 C8      34.5714 -11.6713   8.5938   C.2       1 RES1   0.0000
     9 N9      33.6613 -11.1040   9.4089   N.2       1 RES1   0.0000
    10 C10     33.8387  -9.7876  10.0037   C.3       1 RES1   0.0000
    11 C11     33.3771  -8.6784   9.0392   C.2       1 RES1   0.0000
    12 C12     32.9219  -7.4330   9.5099   C.2       1 RES1   0.0000
    13 C13     32.5626  -6.4036   8.6001   C.2       1 RES1   0.0000
    14 C14     32.6885  -6.6208   7.2172   C.2       1 RES1   0.0000
    15 C15     33.1995  -7.8541   6.7498   C.2       1 RES1   0.0000
    16 Cl16    33.3762  -8.1906   5.0299   Cl        1 RES1   0.0000
    17 C17     33.5278  -8.8756   7.6569   C.2       1 RES1   0.0000
    18 C18     33.0183  -9.6253  11.2849   C.2       1 RES1   0.0000
    19 C19     31.6407  -9.8944  11.3446   C.2       1 RES1   0.0000
    20 C20     30.9824  -9.7461  12.5788   C.2       1 RES1   0.0000
    21 C21     31.6883  -9.3119  13.7135   C.2       1 RES1   0.0000
    22 C22     33.0615  -9.0509  13.5970   C.2       1 RES1   0.0000
    23 N23     33.6733  -9.2167  12.3988   N.2       1 RES1   0.0000
    24 C24     34.2891 -12.9246   8.0234   C.2       1 RES1   0.0000
    25 N25     33.0332 -13.4546   8.2067   N.2       1 RES1   0.0000
    26 C26     32.5154 -14.6735   7.8720   C.2       1 RES1   0.0000
    27 N27     31.2054 -14.8972   8.1763   N.2       1 RES1   0.0000
    28 C28     30.5841 -16.0769   7.8804   C.2       1 RES1   0.0000
    29 C29     31.3084 -17.0938   7.2267   C.2       1 RES1   0.0000
    30 C30     32.6624 -16.8406   6.9128   C.2       1 RES1   0.0000
    31 N31     33.2275 -15.6428   7.2329   N.2       1 RES1   0.0000
    32 C32     35.2732 -13.5343   7.2176   C.2       1 RES1   0.0000
@<TRIPOS>BOND
     1     1     2    1
     2     2     3    2
     3     2     4    2
     4     2     5    1
     5     5     6    2
     6     6     7    1
     7     7     8    2
     8     8     9    1
     9    10     9    1
    10    10    11    1
    11    11    12    2
    12    12    13    1
    13    13    14    2
    14    14    15    1
    15    15    16    1
    16    15    17    2
    17    10    18    1
    18    18    19    2
    19    19    20    1
    20    20    21    2
    21    21    22    1
    22    22    23    2
    23     8    24    1
    24    24    25    1
    25    25    26    1
    26    26    27    2
    27    27    28    1
    28    28    29    2
    29    29    30    1
    30    30    31    2
    31    24    32    2
    32    32     5    1
    33    17    11    1
    34    23    18    1
    35    31    26    1
@<TRIPOS>SUBSTRUCTURE
     1 RES1        1 GROUP             0 ****  ****    0  
@<TRIPOS>MOLECULE
ligand_73
    32    35     1     0     0
SMALL
NO_CHARGES
****
Generated from the CSD

@<TRIPOS>ATOM
     1 C1      38.8314 -14.4392   7.2323   C.3       1 RES1   0.0000
     2 S2      37.7440 -13.6630   6.0180   S.o2      1 RES1   0.0000
     3 O3      38.4409 -12.5616   5.3639   O.2       1 RES1   0.0000
     4 O4      37.0889 -14.6760   5.2276   O.2       1 RES1   0.0000
     5 C5      36.5128 -12.9155   7.0327   C.2       1 RES1   0.0000
     6 C6      36.7929 -11.6698   7.6133   C.2       1 RES1   0.0000
     7 C7      35.8069 -11.0392   8.3623   C.2       1 RES1   0.0000
     8 C8      34.5714 -11.6713   8.5938   C.2       1 RES1   0.0000
     9 N9      33.6613 -11.1040   9.4089   N.2       1 RES1   0.0000
    10 C10     33.8387  -9.7876  10.0037   C.3       1 RES1   0.0000
    11 C11     33.3771  -8.6784   9.0392   C.2       1 RES1   0.0000
    12 C12     32.9219  -7.4330   9.5099   C.2       1 RES1   0.0000
    13 C13     32.5626  -6.4036   8.6001   C.2       1 RES1   0.0000
    14 C14     32.6885  -6.6208   7.2172   C.2       1 RES1   0.0000
    15 C15     33.1995  -7.8541   6.7498   C.2       1 RES1   0.0000
    16 Cl16    33.3762  -8.1906   5.0299   Cl        1 RES1   0.0000
    17 C17     33.5278  -8.8756   7.6569   C.2       1 RES1   0.0000
    18 C18     33.0183  -9.6253  11.2849   C.2       1 RES1   0.0000
    19 C19     31.6407  -9.8944  11.3446   C.2       1 RES1   0.0000
    20 C20     30.9824  -9.7461  12.5788   C.2       1 RES1   0.0000
    21 C21     31.6883  -9.3119  13.7135   C.2       1 RES1   0.0000
    22 C22     33.0615  -9.0509  13.5970   C.2       1 RES1   0.0000
    23 N23     33.6733  -9.2167  12.3988   N.2       1 RES1   0.0000
    24 C24     34.2891 -12.9246   8.0234   C.2       1 RES1   0.0000
    25 N25     33.0332 -13.4546   8.2067   N.2       1 RES1   0.0000
    26 C26     32.5154 -14.6735   7.8720   C.2       1 RES1   0.0000
    27 N27     31.2054 -14.8972   8.1763   N.2       1 RES1   0.0000
    28 C28     30.5841 -16.0769   7.8804   C.2       1 RES1   0.0000
    29 C29     31.3084 -17.0938   7.2267   C.2       1 RES1   0.0000
    30 C30     32.6624 -16.8406   6.9128   C.2       1 RES1   0.0000
    31 N31     33.2275 -15.6428   7.2329   N.2       1 RES1   0.0000
    32 C32     35.2732 -13.5343   7.2176   C.2       1 RES1   0.0000
@<TRIPOS>BOND
     1     1     2    1
     2     2     3    2
     3     2     4    2
     4     2     5    1
     5     5     6    2
     6     6     7    1
     7     7     8    2
     8     8     9    1
     9    10     9    1
    10    10    11    1
    11    11    12    2
    12    12    13    1
    13    13    14    2
    14    14    15    1
    15    15    16    1
    16    15    17    2
    17    10    18    1
    18    18    19    2
    19    19    20    1
    20    20    21    2
    21    21    22    1
    22    22    23    2
    23     8    24    1
    24    24    25    1
    25    25    26    1
    26    26    27    2
    27    27    28    1
    28    28    29    2
    29    29    30    1
    30    30    31    2
    31    24    32    2
    32    32     5    1
    33    17    11    1
    34    23    18    1
    35    31    26    1
@<TRIPOS>SUBSTRUCTURE
     1 RES1        1 GROUP             0 ****  ****    0  
@<TRIPOS>MOLECULE
ligand_74
    32    35     1     0     0
SMALL
NO_CHARGES
****
Generated from the CSD

@<TRIPOS>ATOM
     1 C1      39.7576  -5.4095  11.0539   C.3       1 RES1   0.0000
     2 S2      39.0762  -6.2253  12.5132   S.o2      1 RES1   0.0000
     3 O3      40.1133  -7.0151  13.1667   O.2       1 RES1   0.0000
     4 O4      38.2910  -5.2877  13.2777   O.2       1 RES1   0.0000
     5 C5      37.9580  -7.3912  11.8100   C.2       1 RES1   0.0000
     6 C6      36.5974  -7.0566  11.7473   C.2       1 RES1   0.0000
     7 C7      35.7146  -7.9390  11.1365   C.2       1 RES1   0.0000
     8 C8      36.1660  -9.1799  10.6510   C.2       1 RES1   0.0000
     9 N9      35.2887 -10.0755  10.1582   N.2       1 RES1   0.0000
    10 C10     33.8886  -9.7636   9.9126   C.3       1 RES1   0.0000
    11 C11     33.7428  -8.7309   8.7787   C.2       1 RES1   0.0000
    12 C12     33.1803  -7.4610   9.0042   C.2       1 RES1   0.0000
    13 C13     33.1153  -6.5028   7.9583   C.2       1 RES1   0.0000
    14 C14     33.6422  -6.8153   6.6934   C.2       1 RES1   0.0000
    15 C15     34.2572  -8.0722   6.4865   C.2       1 RES1   0.0000
    16 Cl16    34.9312  -8.5269   4.9240   Cl        1 RES1   0.0000
    17 C17     34.2934  -9.0231   7.5202   C.2       1 RES1   0.0000
    18 C18     33.0951 -11.0000   9.4854   C.2       1 RES1   0.0000
    19 C19     33.5628 -11.9072   8.5199   C.2       1 RES1   0.0000
    20 C20     32.7733 -13.0320   8.2201   C.2       1 RES1   0.0000
    21 C21     31.5347 -13.2213   8.8559   C.2       1 RES1   0.0000
    22 C22     31.1123 -12.2816   9.8077   C.2       1 RES1   0.0000
    23 N23     31.9003 -11.2148  10.0880   N.2       1 RES1   0.0000
    24 C24     37.5268  -9.5253  10.7208   C.2       1 RES1   0.0000
    25 N25     37.9272 -10.7104  10.1490   N.2       1 RES1   0.0000
    26 C26     39.1341 -11.3500  10.1602   C.2       1 RES1   0.0000
    27 N27     39.2224 -12.5230   9.4709   N.2       1 RES1   0.0000
    28 C28     40.3821 -13.2416   9.4093   C.2       1 RES1   0.0000
    29 C29     41.5318 -12.7546  10.0629   C.2       1 RES1   0.0000
    30 C30     41.4227 -11.5339  10.7656   C.2       1 RES1   0.0000
    31 N31     40.2380 -10.8613  10.7908   N.2       1 RES1   0.0000
    32 C32     38.4271  -8.6013  11.2912   C.2       1 RES1   0.0000
@<TRIPOS>BOND
     1     1     2    1
     2     2     3    2
     3     2     4    2
     4     2     5    1
     5     5     6    2
     6     6     7    1
     7     7     8    2
     8     8     9    1
     9    10     9    1
    10    10    11    1
    11    11    12    2
    12    12    13    1
    13    13    14    2
    14    14    15    1
    15    15    16    1
    16    15    17    2
    17    10    18    1
    18    18    19    2
    19    19    20    1
    20    20    21    2
    21    21    22    1
    22    22    23    2
    23     8    24    1
    24    24    25    1
    25    25    26    1
    26    26    27    2
    27    27    28    1
    28    28    29    2
    29    29    30    1
    30    30    31    2
    31    24    32    2
    32    32     5    1
    33    17    11    1
    34    23    18    1
    35    31    26    1
@<TRIPOS>SUBSTRUCTURE
     1 RES1        1 GROUP             0 ****  ****    0  
@<TRIPOS>MOLECULE
ligand_75
    32    35     1     0     0
SMALL
NO_CHARGES
****
Generated from the CSD

@<TRIPOS>ATOM
     1 C1      38.8896  -6.5252  14.2837   C.3       1 RES1   0.0000
     2 S2      39.0762  -6.2253  12.5132   S.o2      1 RES1   0.0000
     3 O3      38.5423  -4.9109  12.1762   O.2       1 RES1   0.0000
     4 O4      40.4037  -6.5974  12.0898   O.2       1 RES1   0.0000
     5 C5      37.9580  -7.3912  11.8100   C.2       1 RES1   0.0000
     6 C6      36.5974  -7.0566  11.7473   C.2       1 RES1   0.0000
     7 C7      35.7146  -7.9390  11.1365   C.2       1 RES1   0.0000
     8 C8      36.1660  -9.1799  10.6510   C.2       1 RES1   0.0000
     9 N9      35.2887 -10.0755  10.1582   N.2       1 RES1   0.0000
    10 C10     33.8886  -9.7636   9.9126   C.3       1 RES1   0.0000
    11 C11     33.7428  -8.7309   8.7787   C.2       1 RES1   0.0000
    12 C12     33.1803  -7.4610   9.0042   C.2       1 RES1   0.0000
    13 C13     33.1153  -6.5028   7.9583   C.2       1 RES1   0.0000
    14 C14     33.6422  -6.8153   6.6934   C.2       1 RES1   0.0000
    15 C15     34.2572  -8.0722   6.4865   C.2       1 RES1   0.0000
    16 Cl16    34.9312  -8.5269   4.9240   Cl        1 RES1   0.0000
    17 C17     34.2934  -9.0231   7.5202   C.2       1 RES1   0.0000
    18 C18     33.0951 -11.0000   9.4854   C.2       1 RES1   0.0000
    19 C19     33.5628 -11.9072   8.5199   C.2       1 RES1   0.0000
    20 C20     32.7733 -13.0320   8.2201   C.2       1 RES1   0.0000
    21 C21     31.5347 -13.2213   8.8559   C.2       1 RES1   0.0000
    22 C22     31.1123 -12.2816   9.8077   C.2       1 RES1   0.0000
    23 N23     31.9003 -11.2148  10.0880   N.2       1 RES1   0.0000
    24 C24     37.5268  -9.5253  10.7208   C.2       1 RES1   0.0000
    25 N25     37.9272 -10.7104  10.1490   N.2       1 RES1   0.0000
    26 C26     39.1341 -11.3500  10.1602   C.2       1 RES1   0.0000
    27 N27     39.2224 -12.5230   9.4709   N.2       1 RES1   0.0000
    28 C28     40.3821 -13.2416   9.4093   C.2       1 RES1   0.0000
    29 C29     41.5318 -12.7546  10.0629   C.2       1 RES1   0.0000
    30 C30     41.4227 -11.5339  10.7656   C.2       1 RES1   0.0000
    31 N31     40.2380 -10.8613  10.7908   N.2       1 RES1   0.0000
    32 C32     38.4271  -8.6013  11.2912   C.2       1 RES1   0.0000
@<TRIPOS>BOND
     1     1     2    1
     2     2     3    2
     3     2     4    2
     4     2     5    1
     5     5     6    2
     6     6     7    1
     7     7     8    2
     8     8     9    1
     9    10     9    1
    10    10    11    1
    11    11    12    2
    12    12    13    1
    13    13    14    2
    14    14    15    1
    15    15    16    1
    16    15    17    2
    17    10    18    1
    18    18    19    2
    19    19    20    1
    20    20    21    2
    21    21    22    1
    22    22    23    2
    23     8    24    1
    24    24    25    1
    25    25    26    1
    26    26    27    2
    27    27    28    1
    28    28    29    2
    29    29    30    1
    30    30    31    2
    31    24    32    2
    32    32     5    1
    33    17    11    1
    34    23    18    1
    35    31    26    1
@<TRIPOS>SUBSTRUCTURE
     1 RES1        1 GROUP             0 ****  ****    0  
@<TRIPOS>MOLECULE
ligand_76
    32    35     1     0     0
SMALL
NO_CHARGES
****
Generated from the CSD

@<TRIPOS>ATOM
     1 C1      26.7409 -11.7148  10.9468   C.3       1 RES1   0.0000
     2 S2      27.9885 -12.9041  11.4838   S.o2      1 RES1   0.0000
     3 O3      27.7898 -13.2261  12.8921   O.2       1 RES1   0.0000
     4 O4      28.1102 -13.9609  10.5100   O.2       1 RES1   0.0000
     5 C5      29.4723 -11.9565  11.4139   C.2       1 RES1   0.0000
     6 C6      30.2911 -12.0817  10.2821   C.2       1 RES1   0.0000
     7 C7      31.4303 -11.2921  10.1847   C.2       1 RES1   0.0000
     8 C8      31.7952 -10.4313  11.2361   C.2       1 RES1   0.0000
     9 N9      32.9559  -9.7498  11.1832   N.2       1 RES1   0.0000
    10 C10     33.8757  -9.8334  10.0585   C.3       1 RES1   0.0000
    11 C11     33.5448  -8.7706   8.9934   C.2       1 RES1   0.0000
    12 C12     33.0645  -7.4960   9.3464   C.2       1 RES1   0.0000
    13 C13     32.8275  -6.5114   8.3510   C.2       1 RES1   0.0000
    14 C14     33.1009  -6.8030   7.0036   C.2       1 RES1   0.0000
    15 C15     33.6366  -8.0661   6.6593   C.2       1 RES1   0.0000
    16 Cl16    33.9955  -8.4954   4.9892   Cl        1 RES1   0.0000
    17 C17     33.8432  -9.0426   7.6483   C.2       1 RES1   0.0000
    18 C18     35.3242  -9.5900  10.4868   C.2       1 RES1   0.0000
    19 C19     36.3338  -9.2251   9.5806   C.2       1 RES1   0.0000
    20 C20     37.6283  -8.9914  10.0788   C.2       1 RES1   0.0000
    21 C21     37.9024  -9.1488  11.4479   C.2       1 RES1   0.0000
    22 C22     36.8590  -9.5209  12.3082   C.2       1 RES1   0.0000
    23 N23     35.6177  -9.7249  11.8031   N.2       1 RES1   0.0000
    24 C24     30.9841 -10.3097  12.3777   C.2       1 RES1   0.0000
    25 N25     31.3401  -9.3867  13.3332   N.2       1 RES1   0.0000
    26 C26     30.8626  -9.1703  14.5946   C.2       1 RES1   0.0000
    27 N27     29.9025 -10.0240  15.0508   N.2       1 RES1   0.0000
    28 C28     29.3604  -9.9045  16.2986   C.2       1 RES1   0.0000
    29 C29     29.8129  -8.8790  17.1527   C.2       1 RES1   0.0000
    30 C30     30.8135  -8.0090  16.6651   C.2       1 RES1   0.0000
    31 N31     31.3168  -8.1787  15.4103   N.2       1 RES1   0.0000
    32 C32     29.7994 -11.0722  12.4457   C.2       1 RES1   0.0000
@<TRIPOS>BOND
     1     1     2    1
     2     2     3    2
     3     2     4    2
     4     2     5    1
     5     5     6    2
     6     6     7    1
     7     7     8    2
     8     8     9    1
     9    10     9    1
    10    10    11    1
    11    11    12    2
    12    12    13    1
    13    13    14    2
    14    14    15    1
    15    15    16    1
    16    15    17    2
    17    10    18    1
    18    18    19    2
    19    19    20    1
    20    20    21    2
    21    21    22    1
    22    22    23    2
    23     8    24    1
    24    24    25    1
    25    25    26    1
    26    26    27    2
    27    27    28    1
    28    28    29    2
    29    29    30    1
    30    30    31    2
    31    24    32    2
    32    32     5    1
    33    17    11    1
    34    23    18    1
    35    31    26    1
@<TRIPOS>SUBSTRUCTURE
     1 RES1        1 GROUP             0 ****  ****    0  
@<TRIPOS>MOLECULE
ligand_77
    32    35     1     0     0
SMALL
NO_CHARGES
****
Generated from the CSD

@<TRIPOS>ATOM
     1 C1      28.5797 -14.5126  12.0517   C.3       1 RES1   0.0000
     2 S2      27.9885 -12.9041  11.4838   S.o2      1 RES1   0.0000
     3 O3      27.5195 -13.0084  10.1070   O.2       1 RES1   0.0000
     4 O4      27.1472 -12.3068  12.4915   O.2       1 RES1   0.0000
     5 C5      29.4723 -11.9565  11.4139   C.2       1 RES1   0.0000
     6 C6      30.2911 -12.0817  10.2821   C.2       1 RES1   0.0000
     7 C7      31.4303 -11.2921  10.1847   C.2       1 RES1   0.0000
     8 C8      31.7952 -10.4313  11.2361   C.2       1 RES1   0.0000
     9 N9      32.9559  -9.7498  11.1832   N.2       1 RES1   0.0000
    10 C10     33.8757  -9.8334  10.0585   C.3       1 RES1   0.0000
    11 C11     33.5448  -8.7706   8.9934   C.2       1 RES1   0.0000
    12 C12     33.0645  -7.4960   9.3464   C.2       1 RES1   0.0000
    13 C13     32.8275  -6.5114   8.3510   C.2       1 RES1   0.0000
    14 C14     33.1009  -6.8030   7.0036   C.2       1 RES1   0.0000
    15 C15     33.6366  -8.0661   6.6593   C.2       1 RES1   0.0000
    16 Cl16    33.9955  -8.4954   4.9892   Cl        1 RES1   0.0000
    17 C17     33.8432  -9.0426   7.6483   C.2       1 RES1   0.0000
    18 C18     35.3242  -9.5900  10.4868   C.2       1 RES1   0.0000
    19 C19     36.3338  -9.2251   9.5806   C.2       1 RES1   0.0000
    20 C20     37.6283  -8.9914  10.0788   C.2       1 RES1   0.0000
    21 C21     37.9024  -9.1488  11.4479   C.2       1 RES1   0.0000
    22 C22     36.8590  -9.5209  12.3082   C.2       1 RES1   0.0000
    23 N23     35.6177  -9.7249  11.8031   N.2       1 RES1   0.0000
    24 C24     30.9841 -10.3097  12.3777   C.2       1 RES1   0.0000
    25 N25     31.3401  -9.3867  13.3332   N.2       1 RES1   0.0000
    26 C26     30.8626  -9.1703  14.5946   C.2       1 RES1   0.0000
    27 N27     29.9025 -10.0240  15.0508   N.2       1 RES1   0.0000
    28 C28     29.3604  -9.9045  16.2986   C.2       1 RES1   0.0000
    29 C29     29.8129  -8.8790  17.1527   C.2       1 RES1   0.0000
    30 C30     30.8135  -8.0090  16.6651   C.2       1 RES1   0.0000
    31 N31     31.3168  -8.1787  15.4103   N.2       1 RES1   0.0000
    32 C32     29.7994 -11.0722  12.4457   C.2       1 RES1   0.0000
@<TRIPOS>BOND
     1     1     2    1
     2     2     3    2
     3     2     4    2
     4     2     5    1
     5     5     6    2
     6     6     7    1
     7     7     8    2
     8     8     9    1
     9    10     9    1
    10    10    11    1
    11    11    12    2
    12    12    13    1
    13    13    14    2
    14    14    15    1
    15    15    16    1
    16    15    17    2
    17    10    18    1
    18    18    19    2
    19    19    20    1
    20    20    21    2
    21    21    22    1
    22    22    23    2
    23     8    24    1
    24    24    25    1
    25    25    26    1
    26    26    27    2
    27    27    28    1
    28    28    29    2
    29    29    30    1
    30    30    31    2
    31    24    32    2
    32    32     5    1
    33    17    11    1
    34    23    18    1
    35    31    26    1
@<TRIPOS>SUBSTRUCTURE
     1 RES1        1 GROUP             0 ****  ****    0  
@<TRIPOS>MOLECULE
ligand_78
    32    35     1     0     0
SMALL
NO_CHARGES
****
Generated from the CSD

@<TRIPOS>ATOM
     1 C1      39.7576  -5.4095  11.0539   C.3       1 RES1   0.0000
     2 S2      39.0762  -6.2253  12.5132   S.o2      1 RES1   0.0000
     3 O3      40.1133  -7.0151  13.1667   O.2       1 RES1   0.0000
     4 O4      38.2910  -5.2877  13.2777   O.2       1 RES1   0.0000
     5 C5      37.9580  -7.3912  11.8100   C.2       1 RES1   0.0000
     6 C6      36.5974  -7.0566  11.7473   C.2       1 RES1   0.0000
     7 C7      35.7146  -7.9390  11.1365   C.2       1 RES1   0.0000
     8 C8      36.1660  -9.1799  10.6510   C.2       1 RES1   0.0000
     9 N9      35.2887 -10.0755  10.1582   N.2       1 RES1   0.0000
    10 C10     33.8853  -9.7678   9.9261   C.3       1 RES1   0.0000
    11 C11     33.7244  -8.7513   8.7796   C.2       1 RES1   0.0000
    12 C12     33.2476  -7.4477   9.0101   C.2       1 RES1   0.0000
    13 C13     33.1687  -6.5084   7.9482   C.2       1 RES1   0.0000
    14 C14     33.5962  -6.8750   6.6604   C.2       1 RES1   0.0000
    15 C15     34.1272  -8.1682   6.4450   C.2       1 RES1   0.0000
    16 Cl16    34.6745  -8.6910   4.8546   Cl        1 RES1   0.0000
    17 C17     34.1770  -9.0990   7.4964   C.2       1 RES1   0.0000
    18 C18     33.0874 -11.0106   9.5265   C.2       1 RES1   0.0000
    19 C19     31.6855 -11.0166   9.4339   C.2       1 RES1   0.0000
    20 C20     31.0466 -12.2014   9.0259   C.2       1 RES1   0.0000
    21 C21     31.7986 -13.3549   8.7464   C.2       1 RES1   0.0000
    22 C22     33.1953 -13.2960   8.8609   C.2       1 RES1   0.0000
    23 N23     33.7857 -12.1367   9.2416   N.2       1 RES1   0.0000
    24 C24     37.5268  -9.5253  10.7208   C.2       1 RES1   0.0000
    25 N25     37.9272 -10.7104  10.1490   N.2       1 RES1   0.0000
    26 C26     38.9128 -11.5887  10.4998   C.2       1 RES1   0.0000
    27 N27     39.0665 -12.6952   9.7183   N.2       1 RES1   0.0000
    28 C28     40.0244 -13.6347   9.9730   C.2       1 RES1   0.0000
    29 C29     40.8949 -13.4545  11.0666   C.2       1 RES1   0.0000
    30 C30     40.7250 -12.2982  11.8602   C.2       1 RES1   0.0000
    31 N31     39.7509 -11.3953  11.5559   N.2       1 RES1   0.0000
    32 C32     38.4271  -8.6013  11.2912   C.2       1 RES1   0.0000
@<TRIPOS>BOND
     1     1     2    1
     2     2     3    2
     3     2     4    2
     4     2     5    1
     5     5     6    2
     6     6     7    1
     7     7     8    2
     8     8     9    1
     9    10     9    1
    10    10    11    1
    11    11    12    2
    12    12    13    1
    13    13    14    2
    14    14    15    1
    15    15    16    1
    16    15    17    2
    17    10    18    1
    18    18    19    2
    19    19    20    1
    20    20    21    2
    21    21    22    1
    22    22    23    2
    23     8    24    1
    24    24    25    1
    25    25    26    1
    26    26    27    2
    27    27    28    1
    28    28    29    2
    29    29    30    1
    30    30    31    2
    31    24    32    2
    32    32     5    1
    33    17    11    1
    34    23    18    1
    35    31    26    1
@<TRIPOS>SUBSTRUCTURE
     1 RES1        1 GROUP             0 ****  ****    0  
@<TRIPOS>MOLECULE
ligand_79
    32    35     1     0     0
SMALL
NO_CHARGES
****
Generated from the CSD

@<TRIPOS>ATOM
     1 C1      39.7576  -5.4095  11.0539   C.3       1 RES1   0.0000
     2 S2      39.0762  -6.2253  12.5132   S.o2      1 RES1   0.0000
     3 O3      40.1133  -7.0151  13.1667   O.2       1 RES1   0.0000
     4 O4      38.2910  -5.2877  13.2777   O.2       1 RES1   0.0000
     5 C5      37.9580  -7.3912  11.8100   C.2       1 RES1   0.0000
     6 C6      36.5974  -7.0566  11.7473   C.2       1 RES1   0.0000
     7 C7      35.7146  -7.9390  11.1365   C.2       1 RES1   0.0000
     8 C8      36.1660  -9.1799  10.6510   C.2       1 RES1   0.0000
     9 N9      35.2887 -10.0755  10.1582   N.2       1 RES1   0.0000
    10 C10     33.8773  -9.7798   9.9622   C.3       1 RES1   0.0000
    11 C11     33.6792  -8.7558   8.8283   C.2       1 RES1   0.0000
    12 C12     33.1882  -7.4613   9.0798   C.2       1 RES1   0.0000
    13 C13     33.0748  -6.5140   8.0281   C.2       1 RES1   0.0000
    14 C14     33.4822  -6.8631   6.7290   C.2       1 RES1   0.0000
    15 C15     34.0275  -8.1464   6.4916   C.2       1 RES1   0.0000
    16 Cl16    34.5511  -8.6472   4.8861   Cl        1 RES1   0.0000
    17 C17     34.1115  -9.0855   7.5334   C.2       1 RES1   0.0000
    18 C18     33.0820 -11.0271   9.5715   C.2       1 RES1   0.0000
    19 C19     31.6785 -11.0462   9.5123   C.2       1 RES1   0.0000
    20 C20     31.0414 -12.2339   9.1099   C.2       1 RES1   0.0000
    21 C21     31.7976 -13.3777   8.8031   C.2       1 RES1   0.0000
    22 C22     33.1960 -13.3060   8.8847   C.2       1 RES1   0.0000
    23 N23     33.7841 -12.1440   9.2607   N.2       1 RES1   0.0000
    24 C24     37.5268  -9.5253  10.7208   C.2       1 RES1   0.0000
    25 N25     37.9272 -10.7104  10.1490   N.2       1 RES1   0.0000
    26 C26     39.0779 -11.0482   9.4950   C.2       1 RES1   0.0000
    27 N27     39.1788 -12.3275   9.0349   N.2       1 RES1   0.0000
    28 C28     40.2814 -12.7705   8.3616   C.2       1 RES1   0.0000
    29 C29     41.3456 -11.8794   8.1175   C.2       1 RES1   0.0000
    30 C30     41.2196 -10.5560   8.5955   C.2       1 RES1   0.0000
    31 N31     40.0941 -10.1721   9.2606   N.2       1 RES1   0.0000
    32 C32     38.4271  -8.6013  11.2912   C.2       1 RES1   0.0000
@<TRIPOS>BOND
     1     1     2    1
     2     2     3    2
     3     2     4    2
     4     2     5    1
     5     5     6    2
     6     6     7    1
     7     7     8    2
     8     8     9    1
     9    10     9    1
    10    10    11    1
    11    11    12    2
    12    12    13    1
    13    13    14    2
    14    14    15    1
    15    15    16    1
    16    15    17    2
    17    10    18    1
    18    18    19    2
    19    19    20    1
    20    20    21    2
    21    21    22    1
    22    22    23    2
    23     8    24    1
    24    24    25    1
    25    25    26    1
    26    26    27    2
    27    27    28    1
    28    28    29    2
    29    29    30    1
    30    30    31    2
    31    24    32    2
    32    32     5    1
    33    17    11    1
    34    23    18    1
    35    31    26    1
@<TRIPOS>SUBSTRUCTURE
     1 RES1        1 GROUP             0 ****  ****    0  
@<TRIPOS>MOLECULE
ligand_80
    32    35     1     0     0
SMALL
NO_CHARGES
****
Generated from the CSD

@<TRIPOS>ATOM
     1 C1      38.8896  -6.5252  14.2837   C.3       1 RES1   0.0000
     2 S2      39.0762  -6.2253  12.5132   S.o2      1 RES1   0.0000
     3 O3      38.5423  -4.9109  12.1762   O.2       1 RES1   0.0000
     4 O4      40.4037  -6.5974  12.0898   O.2       1 RES1   0.0000
     5 C5      37.9580  -7.3912  11.8100   C.2       1 RES1   0.0000
     6 C6      36.5974  -7.0566  11.7473   C.2       1 RES1   0.0000
     7 C7      35.7146  -7.9390  11.1365   C.2       1 RES1   0.0000
     8 C8      36.1660  -9.1799  10.6510   C.2       1 RES1   0.0000
     9 N9      35.2887 -10.0755  10.1582   N.2       1 RES1   0.0000
    10 C10     33.8853  -9.7678   9.9261   C.3       1 RES1   0.0000
    11 C11     33.7244  -8.7513   8.7796   C.2       1 RES1   0.0000
    12 C12     33.2476  -7.4477   9.0101   C.2       1 RES1   0.0000
    13 C13     33.1687  -6.5084   7.9482   C.2       1 RES1   0.0000
    14 C14     33.5962  -6.8750   6.6604   C.2       1 RES1   0.0000
    15 C15     34.1272  -8.1682   6.4450   C.2       1 RES1   0.0000
    16 Cl16    34.6745  -8.6910   4.8546   Cl        1 RES1   0.0000
    17 C17     34.1770  -9.0990   7.4964   C.2       1 RES1   0.0000
    18 C18     33.0874 -11.0106   9.5265   C.2       1 RES1   0.0000
    19 C19     31.6855 -11.0166   9.4339   C.2       1 RES1   0.0000
    20 C20     31.0466 -12.2014   9.0259   C.2       1 RES1   0.0000
    21 C21     31.7986 -13.3549   8.7464   C.2       1 RES1   0.0000
    22 C22     33.1953 -13.2960   8.8609   C.2       1 RES1   0.0000
    23 N23     33.7857 -12.1367   9.2416   N.2       1 RES1   0.0000
    24 C24     37.5268  -9.5253  10.7208   C.2       1 RES1   0.0000
    25 N25     37.9272 -10.7104  10.1490   N.2       1 RES1   0.0000
    26 C26     38.9128 -11.5887  10.4998   C.2       1 RES1   0.0000
    27 N27     39.0665 -12.6952   9.7183   N.2       1 RES1   0.0000
    28 C28     40.0244 -13.6347   9.9730   C.2       1 RES1   0.0000
    29 C29     40.8949 -13.4545  11.0666   C.2       1 RES1   0.0000
    30 C30     40.7250 -12.2982  11.8602   C.2       1 RES1   0.0000
    31 N31     39.7509 -11.3953  11.5559   N.2       1 RES1   0.0000
    32 C32     38.4271  -8.6013  11.2912   C.2       1 RES1   0.0000
@<TRIPOS>BOND
     1     1     2    1
     2     2     3    2
     3     2     4    2
     4     2     5    1
     5     5     6    2
     6     6     7    1
     7     7     8    2
     8     8     9    1
     9    10     9    1
    10    10    11    1
    11    11    12    2
    12    12    13    1
    13    13    14    2
    14    14    15    1
    15    15    16    1
    16    15    17    2
    17    10    18    1
    18    18    19    2
    19    19    20    1
    20    20    21    2
    21    21    22    1
    22    22    23    2
    23     8    24    1
    24    24    25    1
    25    25    26    1
    26    26    27    2
    27    27    28    1
    28    28    29    2
    29    29    30    1
    30    30    31    2
    31    24    32    2
    32    32     5    1
    33    17    11    1
    34    23    18    1
    35    31    26    1
@<TRIPOS>SUBSTRUCTURE
     1 RES1        1 GROUP             0 ****  ****    0  
@<TRIPOS>MOLECULE
ligand_81
    32    35     1     0     0
SMALL
NO_CHARGES
****
Generated from the CSD

@<TRIPOS>ATOM
     1 C1      38.8896  -6.5252  14.2837   C.3       1 RES1   0.0000
     2 S2      39.0762  -6.2253  12.5132   S.o2      1 RES1   0.0000
     3 O3      38.5423  -4.9109  12.1762   O.2       1 RES1   0.0000
     4 O4      40.4037  -6.5974  12.0898   O.2       1 RES1   0.0000
     5 C5      37.9580  -7.3912  11.8100   C.2       1 RES1   0.0000
     6 C6      36.5974  -7.0566  11.7473   C.2       1 RES1   0.0000
     7 C7      35.7146  -7.9390  11.1365   C.2       1 RES1   0.0000
     8 C8      36.1660  -9.1799  10.6510   C.2       1 RES1   0.0000
     9 N9      35.2887 -10.0755  10.1582   N.2       1 RES1   0.0000
    10 C10     33.8773  -9.7798   9.9622   C.3       1 RES1   0.0000
    11 C11     33.6792  -8.7558   8.8283   C.2       1 RES1   0.0000
    12 C12     33.1882  -7.4613   9.0798   C.2       1 RES1   0.0000
    13 C13     33.0748  -6.5140   8.0281   C.2       1 RES1   0.0000
    14 C14     33.4822  -6.8631   6.7290   C.2       1 RES1   0.0000
    15 C15     34.0275  -8.1464   6.4916   C.2       1 RES1   0.0000
    16 Cl16    34.5511  -8.6472   4.8861   Cl        1 RES1   0.0000
    17 C17     34.1115  -9.0855   7.5334   C.2       1 RES1   0.0000
    18 C18     33.0820 -11.0271   9.5715   C.2       1 RES1   0.0000
    19 C19     31.6785 -11.0462   9.5123   C.2       1 RES1   0.0000
    20 C20     31.0414 -12.2339   9.1099   C.2       1 RES1   0.0000
    21 C21     31.7976 -13.3777   8.8031   C.2       1 RES1   0.0000
    22 C22     33.1960 -13.3060   8.8847   C.2       1 RES1   0.0000
    23 N23     33.7841 -12.1440   9.2607   N.2       1 RES1   0.0000
    24 C24     37.5268  -9.5253  10.7208   C.2       1 RES1   0.0000
    25 N25     37.9272 -10.7104  10.1490   N.2       1 RES1   0.0000
    26 C26     39.0779 -11.0482   9.4950   C.2       1 RES1   0.0000
    27 N27     39.1788 -12.3275   9.0349   N.2       1 RES1   0.0000
    28 C28     40.2814 -12.7705   8.3616   C.2       1 RES1   0.0000
    29 C29     41.3456 -11.8794   8.1175   C.2       1 RES1   0.0000
    30 C30     41.2196 -10.5560   8.5955   C.2       1 RES1   0.0000
    31 N31     40.0941 -10.1721   9.2606   N.2       1 RES1   0.0000
    32 C32     38.4271  -8.6013  11.2912   C.2       1 RES1   0.0000
@<TRIPOS>BOND
     1     1     2    1
     2     2     3    2
     3     2     4    2
     4     2     5    1
     5     5     6    2
     6     6     7    1
     7     7     8    2
     8     8     9    1
     9    10     9    1
    10    10    11    1
    11    11    12    2
    12    12    13    1
    13    13    14    2
    14    14    15    1
    15    15    16    1
    16    15    17    2
    17    10    18    1
    18    18    19    2
    19    19    20    1
    20    20    21    2
    21    21    22    1
    22    22    23    2
    23     8    24    1
    24    24    25    1
    25    25    26    1
    26    26    27    2
    27    27    28    1
    28    28    29    2
    29    29    30    1
    30    30    31    2
    31    24    32    2
    32    32     5    1
    33    17    11    1
    34    23    18    1
    35    31    26    1
@<TRIPOS>SUBSTRUCTURE
     1 RES1        1 GROUP             0 ****  ****    0  
@<TRIPOS>MOLECULE
ligand_82
    32    35     1     0     0
SMALL
NO_CHARGES
****
Generated from the CSD

@<TRIPOS>ATOM
     1 C1      41.1332  -8.7042  10.3234   C.3       1 RES1   0.0000
     2 S2      40.5279 -10.0350  11.3827   S.o2      1 RES1   0.0000
     3 O3      41.2091 -11.2803  11.0489   O.2       1 RES1   0.0000
     4 O4      40.4718  -9.5853  12.7518   O.2       1 RES1   0.0000
     5 C5      38.8666 -10.2349  10.8305   C.2       1 RES1   0.0000
     6 C6      37.8422  -9.6122  11.5586   C.2       1 RES1   0.0000
     7 C7      36.5348  -9.7077  11.0974   C.2       1 RES1   0.0000
     8 C8      36.2335 -10.4752   9.9574   C.2       1 RES1   0.0000
     9 N9      34.9532 -10.6526   9.5780   N.2       1 RES1   0.0000
    10 C10     33.8914  -9.7108   9.9000   C.3       1 RES1   0.0000
    11 C11     33.7193  -8.6674   8.7796   C.2       1 RES1   0.0000
    12 C12     33.2885  -7.3558   9.0518   C.2       1 RES1   0.0000
    13 C13     33.1990  -6.3936   8.0115   C.2       1 RES1   0.0000
    14 C14     33.5702  -6.7461   6.7025   C.2       1 RES1   0.0000
    15 C15     34.0560  -8.0490   6.4436   C.2       1 RES1   0.0000
    16 Cl16    34.5318  -8.5549   4.8249   Cl        1 RES1   0.0000
    17 C17     34.1163  -9.0017   7.4746   C.2       1 RES1   0.0000
    18 C18     32.5395 -10.4087  10.0618   C.2       1 RES1   0.0000
    19 C19     32.0087 -11.2725   9.0892   C.2       1 RES1   0.0000
    20 C20     30.7723 -11.8918   9.3468   C.2       1 RES1   0.0000
    21 C21     30.0784 -11.6253  10.5392   C.2       1 RES1   0.0000
    22 C22     30.6506 -10.7498  11.4737   C.2       1 RES1   0.0000
    23 N23     31.8506 -10.1788  11.2060   N.2       1 RES1   0.0000
    24 C24     37.2548 -11.1103   9.2299   C.2       1 RES1   0.0000
    25 N25     36.9147 -11.7713   8.0727   N.2       1 RES1   0.0000
    26 C26     37.6575 -12.5515   7.2328   C.2       1 RES1   0.0000
    27 N27     37.0267 -13.0603   6.1365   N.2       1 RES1   0.0000
    28 C28     37.6751 -13.8466   5.2274   C.2       1 RES1   0.0000
    29 C29     39.0424 -14.1330   5.4129   C.2       1 RES1   0.0000
    30 C30     39.6806 -13.5908   6.5507   C.2       1 RES1   0.0000
    31 N31     38.9808 -12.8121   7.4228   N.2       1 RES1   0.0000
    32 C32     38.5866 -10.9632   9.6709   C.2       1 RES1   0.0000
@<TRIPOS>BOND
     1     1     2    1
     2     2     3    2
     3     2     4    2
     4     2     5    1
     5     5     6    2
     6     6     7    1
     7     7     8    2
     8     8     9    1
     9    10     9    1
    10    10    11    1
    11    11    12    2
    12    12    13    1
    13    13    14    2
    14    14    15    1
    15    15    16    1
    16    15    17    2
    17    10    18    1
    18    18    19    2
    19    19    20    1
    20    20    21    2
    21    21    22    1
    22    22    23    2
    23     8    24    1
    24    24    25    1
    25    25    26    1
    26    26    27    2
    27    27    28    1
    28    28    29    2
    29    29    30    1
    30    30    31    2
    31    24    32    2
    32    32     5    1
    33    17    11    1
    34    23    18    1
    35    31    26    1
@<TRIPOS>SUBSTRUCTURE
     1 RES1        1 GROUP             0 ****  ****    0  
@<TRIPOS>MOLECULE
ligand_83
    32    35     1     0     0
SMALL
NO_CHARGES
****
Generated from the CSD

@<TRIPOS>ATOM
     1 C1      41.3378  -9.3694   9.9438   C.3       1 RES1   0.0000
     2 S2      40.4989  -9.9412  11.4367   S.o2      1 RES1   0.0000
     3 O3      40.9850 -11.2674  11.7990   O.2       1 RES1   0.0000
     4 O4      40.4733  -8.8863  12.4198   O.2       1 RES1   0.0000
     5 C5      38.8442 -10.1739  10.8777   C.2       1 RES1   0.0000
     6 C6      37.9093  -9.1565  11.1189   C.2       1 RES1   0.0000
     7 C7      36.6177  -9.2987  10.6265   C.2       1 RES1   0.0000
     8 C8      36.2335 -10.4752   9.9574   C.2       1 RES1   0.0000
     9 N9      34.9532 -10.6526   9.5780   N.2       1 RES1   0.0000
    10 C10     33.8499  -9.8697  10.1144   C.3       1 RES1   0.0000
    11 C11     33.5477  -8.6536   9.2180   C.2       1 RES1   0.0000
    12 C12     33.0456  -7.4513   9.7492   C.2       1 RES1   0.0000
    13 C13     32.8355  -6.3232   8.9128   C.2       1 RES1   0.0000
    14 C14     33.1577  -6.3991   7.5468   C.2       1 RES1   0.0000
    15 C15     33.7148  -7.5913   7.0280   C.2       1 RES1   0.0000
    16 Cl16    34.1346  -7.7523   5.3250   Cl        1 RES1   0.0000
    17 C17     33.8946  -8.7104   7.8583   C.2       1 RES1   0.0000
    18 C18     32.5585 -10.6859  10.1974   C.2       1 RES1   0.0000
    19 C19     32.0345 -11.3932   9.1024   C.2       1 RES1   0.0000
    20 C20     30.8582 -12.1413   9.2895   C.2       1 RES1   0.0000
    21 C21     30.2138 -12.1528  10.5381   C.2       1 RES1   0.0000
    22 C22     30.7762 -11.4239  11.5963   C.2       1 RES1   0.0000
    23 N23     31.9189 -10.7239  11.3917   N.2       1 RES1   0.0000
    24 C24     37.1633 -11.5028   9.7222   C.2       1 RES1   0.0000
    25 N25     36.7582 -12.5902   8.9839   N.2       1 RES1   0.0000
    26 C26     37.4222 -13.7279   8.6224   C.2       1 RES1   0.0000
    27 N27     36.7379 -14.6338   7.8676   N.2       1 RES1   0.0000
    28 C28     37.3066 -15.8012   7.4447   C.2       1 RES1   0.0000
    29 C29     38.6465 -16.0785   7.7820   C.2       1 RES1   0.0000
    30 C30     39.3414 -15.1245   8.5584   C.2       1 RES1   0.0000
    31 N31     38.7204 -13.9767   8.9505   N.2       1 RES1   0.0000
    32 C32     38.4878 -11.3284  10.1751   C.2       1 RES1   0.0000
@<TRIPOS>BOND
     1     1     2    1
     2     2     3    2
     3     2     4    2
     4     2     5    1
     5     5     6    2
     6     6     7    1
     7     7     8    2
     8     8     9    1
     9    10     9    1
    10    10    11    1
    11    11    12    2
    12    12    13    1
    13    13    14    2
    14    14    15    1
    15    15    16    1
    16    15    17    2
    17    10    18    1
    18    18    19    2
    19    19    20    1
    20    20    21    2
    21    21    22    1
    22    22    23    2
    23     8    24    1
    24    24    25    1
    25    25    26    1
    26    26    27    2
    27    27    28    1
    28    28    29    2
    29    29    30    1
    30    30    31    2
    31    24    32    2
    32    32     5    1
    33    17    11    1
    34    23    18    1
    35    31    26    1
@<TRIPOS>SUBSTRUCTURE
     1 RES1        1 GROUP             0 ****  ****    0  
@<TRIPOS>MOLECULE
ligand_84
    32    35     1     0     0
SMALL
NO_CHARGES
****
Generated from the CSD

@<TRIPOS>ATOM
     1 C1      40.6575 -11.2773  12.6862   C.3       1 RES1   0.0000
     2 S2      40.5279 -10.0350  11.3827   S.o2      1 RES1   0.0000
     3 O3      40.5941  -8.6997  11.9649   O.2       1 RES1   0.0000
     4 O4      41.3895 -10.3877  10.2812   O.2       1 RES1   0.0000
     5 C5      38.8666 -10.2349  10.8305   C.2       1 RES1   0.0000
     6 C6      37.8422  -9.6122  11.5586   C.2       1 RES1   0.0000
     7 C7      36.5348  -9.7077  11.0974   C.2       1 RES1   0.0000
     8 C8      36.2335 -10.4752   9.9574   C.2       1 RES1   0.0000
     9 N9      34.9532 -10.6526   9.5780   N.2       1 RES1   0.0000
    10 C10     33.8914  -9.7108   9.9000   C.3       1 RES1   0.0000
    11 C11     33.7193  -8.6674   8.7796   C.2       1 RES1   0.0000
    12 C12     33.2885  -7.3558   9.0518   C.2       1 RES1   0.0000
    13 C13     33.1990  -6.3936   8.0115   C.2       1 RES1   0.0000
    14 C14     33.5702  -6.7461   6.7025   C.2       1 RES1   0.0000
    15 C15     34.0560  -8.0490   6.4436   C.2       1 RES1   0.0000
    16 Cl16    34.5318  -8.5549   4.8249   Cl        1 RES1   0.0000
    17 C17     34.1163  -9.0017   7.4746   C.2       1 RES1   0.0000
    18 C18     32.5395 -10.4087  10.0618   C.2       1 RES1   0.0000
    19 C19     32.0087 -11.2725   9.0892   C.2       1 RES1   0.0000
    20 C20     30.7723 -11.8918   9.3468   C.2       1 RES1   0.0000
    21 C21     30.0784 -11.6253  10.5392   C.2       1 RES1   0.0000
    22 C22     30.6506 -10.7498  11.4737   C.2       1 RES1   0.0000
    23 N23     31.8506 -10.1788  11.2060   N.2       1 RES1   0.0000
    24 C24     37.2548 -11.1103   9.2299   C.2       1 RES1   0.0000
    25 N25     36.9147 -11.7713   8.0727   N.2       1 RES1   0.0000
    26 C26     37.6575 -12.5515   7.2328   C.2       1 RES1   0.0000
    27 N27     37.0267 -13.0603   6.1365   N.2       1 RES1   0.0000
    28 C28     37.6751 -13.8466   5.2274   C.2       1 RES1   0.0000
    29 C29     39.0424 -14.1330   5.4129   C.2       1 RES1   0.0000
    30 C30     39.6806 -13.5908   6.5507   C.2       1 RES1   0.0000
    31 N31     38.9808 -12.8121   7.4228   N.2       1 RES1   0.0000
    32 C32     38.5866 -10.9632   9.6709   C.2       1 RES1   0.0000
@<TRIPOS>BOND
     1     1     2    1
     2     2     3    2
     3     2     4    2
     4     2     5    1
     5     5     6    2
     6     6     7    1
     7     7     8    2
     8     8     9    1
     9    10     9    1
    10    10    11    1
    11    11    12    2
    12    12    13    1
    13    13    14    2
    14    14    15    1
    15    15    16    1
    16    15    17    2
    17    10    18    1
    18    18    19    2
    19    19    20    1
    20    20    21    2
    21    21    22    1
    22    22    23    2
    23     8    24    1
    24    24    25    1
    25    25    26    1
    26    26    27    2
    27    27    28    1
    28    28    29    2
    29    29    30    1
    30    30    31    2
    31    24    32    2
    32    32     5    1
    33    17    11    1
    34    23    18    1
    35    31    26    1
@<TRIPOS>SUBSTRUCTURE
     1 RES1        1 GROUP             0 ****  ****    0  
@<TRIPOS>MOLECULE
ligand_85
    32    35     1     0     0
SMALL
NO_CHARGES
****
Generated from the CSD

@<TRIPOS>ATOM
     1 C1      40.3919 -10.4101  13.1768   C.3       1 RES1   0.0000
     2 S2      40.4989  -9.9412  11.4367   S.o2      1 RES1   0.0000
     3 O3      40.7572  -8.5104  11.3259   O.2       1 RES1   0.0000
     4 O4      41.3268 -10.8833  10.7246   O.2       1 RES1   0.0000
     5 C5      38.8442 -10.1739  10.8777   C.2       1 RES1   0.0000
     6 C6      37.9093  -9.1565  11.1189   C.2       1 RES1   0.0000
     7 C7      36.6177  -9.2987  10.6265   C.2       1 RES1   0.0000
     8 C8      36.2335 -10.4752   9.9574   C.2       1 RES1   0.0000
     9 N9      34.9532 -10.6526   9.5780   N.2       1 RES1   0.0000
    10 C10     33.8499  -9.8697  10.1144   C.3       1 RES1   0.0000
    11 C11     33.5477  -8.6536   9.2180   C.2       1 RES1   0.0000
    12 C12     33.0456  -7.4513   9.7492   C.2       1 RES1   0.0000
    13 C13     32.8355  -6.3232   8.9128   C.2       1 RES1   0.0000
    14 C14     33.1577  -6.3991   7.5468   C.2       1 RES1   0.0000
    15 C15     33.7148  -7.5913   7.0280   C.2       1 RES1   0.0000
    16 Cl16    34.1346  -7.7523   5.3250   Cl        1 RES1   0.0000
    17 C17     33.8946  -8.7104   7.8583   C.2       1 RES1   0.0000
    18 C18     32.5585 -10.6859  10.1974   C.2       1 RES1   0.0000
    19 C19     32.0345 -11.3932   9.1024   C.2       1 RES1   0.0000
    20 C20     30.8582 -12.1413   9.2895   C.2       1 RES1   0.0000
    21 C21     30.2138 -12.1528  10.5381   C.2       1 RES1   0.0000
    22 C22     30.7762 -11.4239  11.5963   C.2       1 RES1   0.0000
    23 N23     31.9189 -10.7239  11.3917   N.2       1 RES1   0.0000
    24 C24     37.1633 -11.5028   9.7222   C.2       1 RES1   0.0000
    25 N25     36.7582 -12.5902   8.9839   N.2       1 RES1   0.0000
    26 C26     37.4222 -13.7279   8.6224   C.2       1 RES1   0.0000
    27 N27     36.7379 -14.6338   7.8676   N.2       1 RES1   0.0000
    28 C28     37.3066 -15.8012   7.4447   C.2       1 RES1   0.0000
    29 C29     38.6465 -16.0785   7.7820   C.2       1 RES1   0.0000
    30 C30     39.3414 -15.1245   8.5584   C.2       1 RES1   0.0000
    31 N31     38.7204 -13.9767   8.9505   N.2       1 RES1   0.0000
    32 C32     38.4878 -11.3284  10.1751   C.2       1 RES1   0.0000
@<TRIPOS>BOND
     1     1     2    1
     2     2     3    2
     3     2     4    2
     4     2     5    1
     5     5     6    2
     6     6     7    1
     7     7     8    2
     8     8     9    1
     9    10     9    1
    10    10    11    1
    11    11    12    2
    12    12    13    1
    13    13    14    2
    14    14    15    1
    15    15    16    1
    16    15    17    2
    17    10    18    1
    18    18    19    2
    19    19    20    1
    20    20    21    2
    21    21    22    1
    22    22    23    2
    23     8    24    1
    24    24    25    1
    25    25    26    1
    26    26    27    2
    27    27    28    1
    28    28    29    2
    29    29    30    1
    30    30    31    2
    31    24    32    2
    32    32     5    1
    33    17    11    1
    34    23    18    1
    35    31    26    1
@<TRIPOS>SUBSTRUCTURE
     1 RES1        1 GROUP             0 ****  ****    0  
@<TRIPOS>MOLECULE
ligand_86
    32    35     1     0     0
SMALL
NO_CHARGES
****
Generated from the CSD

@<TRIPOS>ATOM
     1 C1      32.0866 -15.4349   5.4294   C.3       1 RES1   0.0000
     2 S2      33.3310 -15.6931   6.7117   S.o2      1 RES1   0.0000
     3 O3      32.9350 -16.8058   7.5670   O.2       1 RES1   0.0000
     4 O4      34.6499 -15.6621   6.1289   O.2       1 RES1   0.0000
     5 C5      33.1635 -14.2450   7.7013   C.2       1 RES1   0.0000
     6 C6      34.0558 -13.1842   7.4878   C.2       1 RES1   0.0000
     7 C7      33.8943 -12.0117   8.2160   C.2       1 RES1   0.0000
     8 C8      32.8953 -11.9148   9.2019   C.2       1 RES1   0.0000
     9 N9      32.8126 -10.8171   9.9783   N.2       1 RES1   0.0000
    10 C10     33.8523  -9.8000  10.0294   C.3       1 RES1   0.0000
    11 C11     33.4698  -8.5749   9.1772   C.2       1 RES1   0.0000
    12 C12     32.9537  -7.4025   9.7593   C.2       1 RES1   0.0000
    13 C13     32.6687  -6.2636   8.9606   C.2       1 RES1   0.0000
    14 C14     32.9300  -6.2977   7.5800   C.2       1 RES1   0.0000
    15 C15     33.5012  -7.4585   7.0080   C.2       1 RES1   0.0000
    16 Cl16    33.8473  -7.5668   5.2844   Cl        1 RES1   0.0000
    17 C17     33.7554  -8.5894   7.8022   C.2       1 RES1   0.0000
    18 C18     34.0820  -9.2901  11.4536   C.2       1 RES1   0.0000
    19 C19     35.1579  -8.4547  11.7976   C.2       1 RES1   0.0000
    20 C20     35.2632  -8.0126  13.1287   C.2       1 RES1   0.0000
    21 C21     34.3257  -8.4242  14.0910   C.2       1 RES1   0.0000
    22 C22     33.2744  -9.2640  13.6952   C.2       1 RES1   0.0000
    23 N23     33.1888  -9.6626  12.4023   N.2       1 RES1   0.0000
    24 C24     32.0049 -12.9787   9.4278   C.2       1 RES1   0.0000
    25 N25     30.9909 -12.7961  10.3389   N.2       1 RES1   0.0000
    26 C26     30.0238 -13.6492  10.7890   C.2       1 RES1   0.0000
    27 N27     29.1392 -13.1593  11.7036   N.2       1 RES1   0.0000
    28 C28     28.1287 -13.9224  12.2150   C.2       1 RES1   0.0000
    29 C29     27.9795 -15.2538  11.7776   C.2       1 RES1   0.0000
    30 C30     28.9010 -15.7412  10.8242   C.2       1 RES1   0.0000
    31 N31     29.8888 -14.9314  10.3498   N.2       1 RES1   0.0000
    32 C32     32.1384 -14.1454   8.6463   C.2       1 RES1   0.0000
@<TRIPOS>BOND
     1     1     2    1
     2     2     3    2
     3     2     4    2
     4     2     5    1
     5     5     6    2
     6     6     7    1
     7     7     8    2
     8     8     9    1
     9    10     9    1
    10    10    11    1
    11    11    12    2
    12    12    13    1
    13    13    14    2
    14    14    15    1
    15    15    16    1
    16    15    17    2
    17    10    18    1
    18    18    19    2
    19    19    20    1
    20    20    21    2
    21    21    22    1
    22    22    23    2
    23     8    24    1
    24    24    25    1
    25    25    26    1
    26    26    27    2
    27    27    28    1
    28    28    29    2
    29    29    30    1
    30    30    31    2
    31    24    32    2
    32    32     5    1
    33    17    11    1
    34    23    18    1
    35    31    26    1
@<TRIPOS>SUBSTRUCTURE
     1 RES1        1 GROUP             0 ****  ****    0  
@<TRIPOS>MOLECULE
ligand_87
    32    35     1     0     0
SMALL
NO_CHARGES
****
Generated from the CSD

@<TRIPOS>ATOM
     1 C1      34.6494 -16.5920   7.5561   C.3       1 RES1   0.0000
     2 S2      33.3310 -15.6931   6.7117   S.o2      1 RES1   0.0000
     3 O3      33.8023 -15.2320   5.4111   O.2       1 RES1   0.0000
     4 O4      32.0933 -16.4264   6.8145   O.2       1 RES1   0.0000
     5 C5      33.1635 -14.2450   7.7013   C.2       1 RES1   0.0000
     6 C6      34.0558 -13.1842   7.4878   C.2       1 RES1   0.0000
     7 C7      33.8943 -12.0117   8.2160   C.2       1 RES1   0.0000
     8 C8      32.8953 -11.9148   9.2019   C.2       1 RES1   0.0000
     9 N9      32.8126 -10.8171   9.9783   N.2       1 RES1   0.0000
    10 C10     33.8523  -9.8000  10.0294   C.3       1 RES1   0.0000
    11 C11     33.4698  -8.5749   9.1772   C.2       1 RES1   0.0000
    12 C12     32.9537  -7.4025   9.7593   C.2       1 RES1   0.0000
    13 C13     32.6687  -6.2636   8.9606   C.2       1 RES1   0.0000
    14 C14     32.9300  -6.2977   7.5800   C.2       1 RES1   0.0000
    15 C15     33.5012  -7.4585   7.0080   C.2       1 RES1   0.0000
    16 Cl16    33.8473  -7.5668   5.2844   Cl        1 RES1   0.0000
    17 C17     33.7554  -8.5894   7.8022   C.2       1 RES1   0.0000
    18 C18     34.0820  -9.2901  11.4536   C.2       1 RES1   0.0000
    19 C19     35.1579  -8.4547  11.7976   C.2       1 RES1   0.0000
    20 C20     35.2632  -8.0126  13.1287   C.2       1 RES1   0.0000
    21 C21     34.3257  -8.4242  14.0910   C.2       1 RES1   0.0000
    22 C22     33.2744  -9.2640  13.6952   C.2       1 RES1   0.0000
    23 N23     33.1888  -9.6626  12.4023   N.2       1 RES1   0.0000
    24 C24     32.0049 -12.9787   9.4278   C.2       1 RES1   0.0000
    25 N25     30.9909 -12.7961  10.3389   N.2       1 RES1   0.0000
    26 C26     30.0238 -13.6492  10.7890   C.2       1 RES1   0.0000
    27 N27     29.1392 -13.1593  11.7036   N.2       1 RES1   0.0000
    28 C28     28.1287 -13.9224  12.2150   C.2       1 RES1   0.0000
    29 C29     27.9795 -15.2538  11.7776   C.2       1 RES1   0.0000
    30 C30     28.9010 -15.7412  10.8242   C.2       1 RES1   0.0000
    31 N31     29.8888 -14.9314  10.3498   N.2       1 RES1   0.0000
    32 C32     32.1384 -14.1454   8.6463   C.2       1 RES1   0.0000
@<TRIPOS>BOND
     1     1     2    1
     2     2     3    2
     3     2     4    2
     4     2     5    1
     5     5     6    2
     6     6     7    1
     7     7     8    2
     8     8     9    1
     9    10     9    1
    10    10    11    1
    11    11    12    2
    12    12    13    1
    13    13    14    2
    14    14    15    1
    15    15    16    1
    16    15    17    2
    17    10    18    1
    18    18    19    2
    19    19    20    1
    20    20    21    2
    21    21    22    1
    22    22    23    2
    23     8    24    1
    24    24    25    1
    25    25    26    1
    26    26    27    2
    27    27    28    1
    28    28    29    2
    29    29    30    1
    30    30    31    2
    31    24    32    2
    32    32     5    1
    33    17    11    1
    34    23    18    1
    35    31    26    1
@<TRIPOS>SUBSTRUCTURE
     1 RES1        1 GROUP             0 ****  ****    0  
@<TRIPOS>MOLECULE
ligand_88
    32    35     1     0     0
SMALL
NO_CHARGES
****
Generated from the CSD

@<TRIPOS>ATOM
     1 C1      30.0481 -14.9899  13.7581   C.3       1 RES1   0.0000
     2 S2      31.6231 -14.4593  14.4634   S.o2      1 RES1   0.0000
     3 O3      31.4161 -13.9700  15.8214   O.2       1 RES1   0.0000
     4 O4      32.6380 -15.4489  14.1976   O.2       1 RES1   0.0000
     5 C5      32.0134 -13.0388  13.4968   C.2       1 RES1   0.0000
     6 C6      32.9020 -13.1870  12.4218   C.2       1 RES1   0.0000
     7 C7      33.1678 -12.0895  11.6120   C.2       1 RES1   0.0000
     8 C8      32.6098 -10.8321  11.9067   C.2       1 RES1   0.0000
     9 N9      32.9559  -9.7498  11.1832   N.2       1 RES1   0.0000
    10 C10     33.8386  -9.8156  10.0280   C.3       1 RES1   0.0000
    11 C11     33.5931  -8.6291   9.0764   C.2       1 RES1   0.0000
    12 C12     33.2409  -7.3554   9.5597   C.2       1 RES1   0.0000
    13 C13     33.0827  -6.2619   8.6679   C.2       1 RES1   0.0000
    14 C14     33.3064  -6.4464   7.2927   C.2       1 RES1   0.0000
    15 C15     33.7150  -7.7146   6.8177   C.2       1 RES1   0.0000
    16 Cl16    34.0058  -8.0124   5.1062   Cl        1 RES1   0.0000
    17 C17     33.8436  -8.7967   7.7047   C.2       1 RES1   0.0000
    18 C18     35.3130  -9.7567  10.4324   C.2       1 RES1   0.0000
    19 C19     36.3041 -10.5324   9.8081   C.2       1 RES1   0.0000
    20 C20     37.6372 -10.3816  10.2304   C.2       1 RES1   0.0000
    21 C21     37.9572  -9.4942  11.2717   C.2       1 RES1   0.0000
    22 C22     36.9281  -8.7483  11.8651   C.2       1 RES1   0.0000
    23 N23     35.6542  -8.9026  11.4279   N.2       1 RES1   0.0000
    24 C24     31.7270 -10.6751  12.9892   C.2       1 RES1   0.0000
    25 N25     31.1396  -9.4457  13.1766   N.2       1 RES1   0.0000
    26 C26     31.6393  -8.2797  13.6832   C.2       1 RES1   0.0000
    27 N27     32.9416  -8.2848  14.0868   N.2       1 RES1   0.0000
    28 C28     33.5449  -7.1730  14.6015   C.2       1 RES1   0.0000
    29 C29     32.8100  -5.9752  14.7079   C.2       1 RES1   0.0000
    30 C30     31.4644  -5.9875  14.2776   C.2       1 RES1   0.0000
    31 N31     30.9173  -7.1282  13.7717   N.2       1 RES1   0.0000
    32 C32     31.4169 -11.8055  13.7740   C.2       1 RES1   0.0000
@<TRIPOS>BOND
     1     1     2    1
     2     2     3    2
     3     2     4    2
     4     2     5    1
     5     5     6    2
     6     6     7    1
     7     7     8    2
     8     8     9    1
     9    10     9    1
    10    10    11    1
    11    11    12    2
    12    12    13    1
    13    13    14    2
    14    14    15    1
    15    15    16    1
    16    15    17    2
    17    10    18    1
    18    18    19    2
    19    19    20    1
    20    20    21    2
    21    21    22    1
    22    22    23    2
    23     8    24    1
    24    24    25    1
    25    25    26    1
    26    26    27    2
    27    27    28    1
    28    28    29    2
    29    29    30    1
    30    30    31    2
    31    24    32    2
    32    32     5    1
    33    17    11    1
    34    23    18    1
    35    31    26    1
@<TRIPOS>SUBSTRUCTURE
     1 RES1        1 GROUP             0 ****  ****    0  
@<TRIPOS>MOLECULE
ligand_89
    32    35     1     0     0
SMALL
NO_CHARGES
****
Generated from the CSD

@<TRIPOS>ATOM
     1 C1      30.0481 -14.9899  13.7581   C.3       1 RES1   0.0000
     2 S2      31.6231 -14.4593  14.4634   S.o2      1 RES1   0.0000
     3 O3      31.4161 -13.9700  15.8214   O.2       1 RES1   0.0000
     4 O4      32.6380 -15.4489  14.1976   O.2       1 RES1   0.0000
     5 C5      32.0134 -13.0388  13.4968   C.2       1 RES1   0.0000
     6 C6      32.9020 -13.1870  12.4218   C.2       1 RES1   0.0000
     7 C7      33.1678 -12.0895  11.6120   C.2       1 RES1   0.0000
     8 C8      32.6098 -10.8321  11.9067   C.2       1 RES1   0.0000
     9 N9      32.9559  -9.7498  11.1832   N.2       1 RES1   0.0000
    10 C10     33.8302  -9.8171  10.0217   C.3       1 RES1   0.0000
    11 C11     33.5815  -8.6290   9.0729   C.2       1 RES1   0.0000
    12 C12     33.2367  -7.3547   9.5599   C.2       1 RES1   0.0000
    13 C13     33.0753  -6.2599   8.6701   C.2       1 RES1   0.0000
    14 C14     33.2885  -6.4440   7.2931   C.2       1 RES1   0.0000
    15 C15     33.6896  -7.7130   6.8142   C.2       1 RES1   0.0000
    16 Cl16    33.9669  -8.0103   5.1004   Cl        1 RES1   0.0000
    17 C17     33.8214  -8.7963   7.6993   C.2       1 RES1   0.0000
    18 C18     35.3076  -9.7628  10.4158   C.2       1 RES1   0.0000
    19 C19     36.2920 -10.5408   9.7838   C.2       1 RES1   0.0000
    20 C20     37.6285 -10.3943  10.1968   C.2       1 RES1   0.0000
    21 C21     37.9584  -9.5087  11.2366   C.2       1 RES1   0.0000
    22 C22     36.9357  -8.7604  11.8378   C.2       1 RES1   0.0000
    23 N23     35.6583  -8.9107  11.4096   N.2       1 RES1   0.0000
    24 C24     31.7270 -10.6751  12.9892   C.2       1 RES1   0.0000
    25 N25     31.1396  -9.4457  13.1766   N.2       1 RES1   0.0000
    26 C26     30.1373  -8.8160  12.4948   C.2       1 RES1   0.0000
    27 N27     29.5922  -9.4809  11.4368   N.2       1 RES1   0.0000
    28 C28     28.5804  -8.9484  10.6899   C.2       1 RES1   0.0000
    29 C29     28.0681  -7.6793  11.0262   C.2       1 RES1   0.0000
    30 C30     28.6407  -7.0091  12.1302   C.2       1 RES1   0.0000
    31 N31     29.6484  -7.5920  12.8381   N.2       1 RES1   0.0000
    32 C32     31.4169 -11.8055  13.7740   C.2       1 RES1   0.0000
@<TRIPOS>BOND
     1     1     2    1
     2     2     3    2
     3     2     4    2
     4     2     5    1
     5     5     6    2
     6     6     7    1
     7     7     8    2
     8     8     9    1
     9    10     9    1
    10    10    11    1
    11    11    12    2
    12    12    13    1
    13    13    14    2
    14    14    15    1
    15    15    16    1
    16    15    17    2
    17    10    18    1
    18    18    19    2
    19    19    20    1
    20    20    21    2
    21    21    22    1
    22    22    23    2
    23     8    24    1
    24    24    25    1
    25    25    26    1
    26    26    27    2
    27    27    28    1
    28    28    29    2
    29    29    30    1
    30    30    31    2
    31    24    32    2
    32    32     5    1
    33    17    11    1
    34    23    18    1
    35    31    26    1
@<TRIPOS>SUBSTRUCTURE
     1 RES1        1 GROUP             0 ****  ****    0  
@<TRIPOS>MOLECULE
ligand_90
    32    35     1     0     0
SMALL
NO_CHARGES
****
Generated from the CSD

@<TRIPOS>ATOM
     1 C1      33.0253 -14.5571  15.5963   C.3       1 RES1   0.0000
     2 S2      31.6231 -14.4593  14.4634   S.o2      1 RES1   0.0000
     3 O3      31.6545 -15.5877  13.5404   O.2       1 RES1   0.0000
     4 O4      30.4189 -14.1585  15.1979   O.2       1 RES1   0.0000
     5 C5      32.0134 -13.0388  13.4968   C.2       1 RES1   0.0000
     6 C6      32.9020 -13.1870  12.4218   C.2       1 RES1   0.0000
     7 C7      33.1678 -12.0895  11.6120   C.2       1 RES1   0.0000
     8 C8      32.6098 -10.8321  11.9067   C.2       1 RES1   0.0000
     9 N9      32.9559  -9.7498  11.1832   N.2       1 RES1   0.0000
    10 C10     33.8386  -9.8156  10.0280   C.3       1 RES1   0.0000
    11 C11     33.5931  -8.6291   9.0764   C.2       1 RES1   0.0000
    12 C12     33.2409  -7.3554   9.5597   C.2       1 RES1   0.0000
    13 C13     33.0827  -6.2619   8.6679   C.2       1 RES1   0.0000
    14 C14     33.3064  -6.4464   7.2927   C.2       1 RES1   0.0000
    15 C15     33.7150  -7.7146   6.8177   C.2       1 RES1   0.0000
    16 Cl16    34.0058  -8.0124   5.1062   Cl        1 RES1   0.0000
    17 C17     33.8436  -8.7967   7.7047   C.2       1 RES1   0.0000
    18 C18     35.3130  -9.7567  10.4324   C.2       1 RES1   0.0000
    19 C19     36.3041 -10.5324   9.8081   C.2       1 RES1   0.0000
    20 C20     37.6372 -10.3816  10.2304   C.2       1 RES1   0.0000
    21 C21     37.9572  -9.4942  11.2717   C.2       1 RES1   0.0000
    22 C22     36.9281  -8.7483  11.8651   C.2       1 RES1   0.0000
    23 N23     35.6542  -8.9026  11.4279   N.2       1 RES1   0.0000
    24 C24     31.7270 -10.6751  12.9892   C.2       1 RES1   0.0000
    25 N25     31.1396  -9.4457  13.1766   N.2       1 RES1   0.0000
    26 C26     31.6393  -8.2797  13.6832   C.2       1 RES1   0.0000
    27 N27     32.9416  -8.2848  14.0868   N.2       1 RES1   0.0000
    28 C28     33.5449  -7.1730  14.6015   C.2       1 RES1   0.0000
    29 C29     32.8100  -5.9752  14.7079   C.2       1 RES1   0.0000
    30 C30     31.4644  -5.9875  14.2776   C.2       1 RES1   0.0000
    31 N31     30.9173  -7.1282  13.7717   N.2       1 RES1   0.0000
    32 C32     31.4169 -11.8055  13.7740   C.2       1 RES1   0.0000
@<TRIPOS>BOND
     1     1     2    1
     2     2     3    2
     3     2     4    2
     4     2     5    1
     5     5     6    2
     6     6     7    1
     7     7     8    2
     8     8     9    1
     9    10     9    1
    10    10    11    1
    11    11    12    2
    12    12    13    1
    13    13    14    2
    14    14    15    1
    15    15    16    1
    16    15    17    2
    17    10    18    1
    18    18    19    2
    19    19    20    1
    20    20    21    2
    21    21    22    1
    22    22    23    2
    23     8    24    1
    24    24    25    1
    25    25    26    1
    26    26    27    2
    27    27    28    1
    28    28    29    2
    29    29    30    1
    30    30    31    2
    31    24    32    2
    32    32     5    1
    33    17    11    1
    34    23    18    1
    35    31    26    1
@<TRIPOS>SUBSTRUCTURE
     1 RES1        1 GROUP             0 ****  ****    0  
@<TRIPOS>MOLECULE
ligand_91
    32    35     1     0     0
SMALL
NO_CHARGES
****
Generated from the CSD

@<TRIPOS>ATOM
     1 C1      39.6505 -12.9571  13.4727   C.3       1 RES1   0.0000
     2 S2      38.1940 -13.9876  13.1960   S.o2      1 RES1   0.0000
     3 O3      38.5668 -15.1758  12.4374   O.2       1 RES1   0.0000
     4 O4      37.4446 -14.1170  14.4214   O.2       1 RES1   0.0000
     5 C5      37.2327 -13.0003  12.0980   C.2       1 RES1   0.0000
     6 C6      36.1951 -12.2238  12.6342   C.2       1 RES1   0.0000
     7 C7      35.4714 -11.3913  11.7890   C.2       1 RES1   0.0000
     8 C8      35.7284 -11.3794  10.4058   C.2       1 RES1   0.0000
     9 N9      34.9532 -10.6526   9.5780   N.2       1 RES1   0.0000
    10 C10     33.8815  -9.7875  10.0483   C.3       1 RES1   0.0000
    11 C11     33.5796  -8.6754   9.0258   C.2       1 RES1   0.0000
    12 C12     33.2593  -7.3666   9.4312   C.2       1 RES1   0.0000
    13 C13     33.0480  -6.3432   8.4698   C.2       1 RES1   0.0000
    14 C14     33.1867  -6.6331   7.1016   C.2       1 RES1   0.0000
    15 C15     33.5638  -7.9362   6.7007   C.2       1 RES1   0.0000
    16 Cl16    33.7486  -8.3650   5.0024   Cl        1 RES1   0.0000
    17 C17     33.7453  -8.9484   7.6582   C.2       1 RES1   0.0000
    18 C18     32.5765 -10.5582  10.2574   C.2       1 RES1   0.0000
    19 C19     31.7127 -10.3116  11.3377   C.2       1 RES1   0.0000
    20 C20     30.5196 -11.0515  11.4234   C.2       1 RES1   0.0000
    21 C21     30.2200 -12.0315  10.4621   C.2       1 RES1   0.0000
    22 C22     31.1203 -12.2418   9.4072   C.2       1 RES1   0.0000
    23 N23     32.2554 -11.5038   9.3412   N.2       1 RES1   0.0000
    24 C24     36.7600 -12.1636   9.8612   C.2       1 RES1   0.0000
    25 N25     37.0275 -12.0445   8.5174   N.2       1 RES1   0.0000
    26 C26     36.3654 -12.5260   7.4239   C.2       1 RES1   0.0000
    27 N27     35.2379 -13.2577   7.6522   N.2       1 RES1   0.0000
    28 C28     34.4948 -13.7807   6.6327   C.2       1 RES1   0.0000
    29 C29     34.8906 -13.5486   5.3001   C.2       1 RES1   0.0000
    30 C30     36.0573 -12.7820   5.0835   C.2       1 RES1   0.0000
    31 N31     36.7573 -12.2857   6.1419   N.2       1 RES1   0.0000
    32 C32     37.5281 -12.9643  10.7323   C.2       1 RES1   0.0000
@<TRIPOS>BOND
     1     1     2    1
     2     2     3    2
     3     2     4    2
     4     2     5    1
     5     5     6    2
     6     6     7    1
     7     7     8    2
     8     8     9    1
     9    10     9    1
    10    10    11    1
    11    11    12    2
    12    12    13    1
    13    13    14    2
    14    14    15    1
    15    15    16    1
    16    15    17    2
    17    10    18    1
    18    18    19    2
    19    19    20    1
    20    20    21    2
    21    21    22    1
    22    22    23    2
    23     8    24    1
    24    24    25    1
    25    25    26    1
    26    26    27    2
    27    27    28    1
    28    28    29    2
    29    29    30    1
    30    30    31    2
    31    24    32    2
    32    32     5    1
    33    17    11    1
    34    23    18    1
    35    31    26    1
@<TRIPOS>SUBSTRUCTURE
     1 RES1        1 GROUP             0 ****  ****    0  
@<TRIPOS>MOLECULE
ligand_92
    32    35     1     0     0
SMALL
NO_CHARGES
****
Generated from the CSD

@<TRIPOS>ATOM
     1 C1      33.0253 -14.5571  15.5963   C.3       1 RES1   0.0000
     2 S2      31.6231 -14.4593  14.4634   S.o2      1 RES1   0.0000
     3 O3      31.6545 -15.5877  13.5404   O.2       1 RES1   0.0000
     4 O4      30.4189 -14.1585  15.1979   O.2       1 RES1   0.0000
     5 C5      32.0134 -13.0388  13.4968   C.2       1 RES1   0.0000
     6 C6      32.9020 -13.1870  12.4218   C.2       1 RES1   0.0000
     7 C7      33.1678 -12.0895  11.6120   C.2       1 RES1   0.0000
     8 C8      32.6098 -10.8321  11.9067   C.2       1 RES1   0.0000
     9 N9      32.9559  -9.7498  11.1832   N.2       1 RES1   0.0000
    10 C10     33.8302  -9.8171  10.0217   C.3       1 RES1   0.0000
    11 C11     33.5815  -8.6290   9.0729   C.2       1 RES1   0.0000
    12 C12     33.2367  -7.3547   9.5599   C.2       1 RES1   0.0000
    13 C13     33.0753  -6.2599   8.6701   C.2       1 RES1   0.0000
    14 C14     33.2885  -6.4440   7.2931   C.2       1 RES1   0.0000
    15 C15     33.6896  -7.7130   6.8142   C.2       1 RES1   0.0000
    16 Cl16    33.9669  -8.0103   5.1004   Cl        1 RES1   0.0000
    17 C17     33.8214  -8.7963   7.6993   C.2       1 RES1   0.0000
    18 C18     35.3076  -9.7628  10.4158   C.2       1 RES1   0.0000
    19 C19     36.2920 -10.5408   9.7838   C.2       1 RES1   0.0000
    20 C20     37.6285 -10.3943  10.1968   C.2       1 RES1   0.0000
    21 C21     37.9584  -9.5087  11.2366   C.2       1 RES1   0.0000
    22 C22     36.9357  -8.7604  11.8378   C.2       1 RES1   0.0000
    23 N23     35.6583  -8.9107  11.4096   N.2       1 RES1   0.0000
    24 C24     31.7270 -10.6751  12.9892   C.2       1 RES1   0.0000
    25 N25     31.1396  -9.4457  13.1766   N.2       1 RES1   0.0000
    26 C26     30.1373  -8.8160  12.4948   C.2       1 RES1   0.0000
    27 N27     29.5922  -9.4809  11.4368   N.2       1 RES1   0.0000
    28 C28     28.5804  -8.9484  10.6899   C.2       1 RES1   0.0000
    29 C29     28.0681  -7.6793  11.0262   C.2       1 RES1   0.0000
    30 C30     28.6407  -7.0091  12.1302   C.2       1 RES1   0.0000
    31 N31     29.6484  -7.5920  12.8381   N.2       1 RES1   0.0000
    32 C32     31.4169 -11.8055  13.7740   C.2       1 RES1   0.0000
@<TRIPOS>BOND
     1     1     2    1
     2     2     3    2
     3     2     4    2
     4     2     5    1
     5     5     6    2
     6     6     7    1
     7     7     8    2
     8     8     9    1
     9    10     9    1
    10    10    11    1
    11    11    12    2
    12    12    13    1
    13    13    14    2
    14    14    15    1
    15    15    16    1
    16    15    17    2
    17    10    18    1
    18    18    19    2
    19    19    20    1
    20    20    21    2
    21    21    22    1
    22    22    23    2
    23     8    24    1
    24    24    25    1
    25    25    26    1
    26    26    27    2
    27    27    28    1
    28    28    29    2
    29    29    30    1
    30    30    31    2
    31    24    32    2
    32    32     5    1
    33    17    11    1
    34    23    18    1
    35    31    26    1
@<TRIPOS>SUBSTRUCTURE
     1 RES1        1 GROUP             0 ****  ****    0  
@<TRIPOS>MOLECULE
ligand_93
    32    35     1     0     0
SMALL
NO_CHARGES
****
Generated from the CSD

@<TRIPOS>ATOM
     1 C1      39.6505 -12.9571  13.4727   C.3       1 RES1   0.0000
     2 S2      38.1940 -13.9876  13.1960   S.o2      1 RES1   0.0000
     3 O3      38.5668 -15.1758  12.4374   O.2       1 RES1   0.0000
     4 O4      37.4446 -14.1170  14.4214   O.2       1 RES1   0.0000
     5 C5      37.2327 -13.0003  12.0980   C.2       1 RES1   0.0000
     6 C6      36.1951 -12.2238  12.6342   C.2       1 RES1   0.0000
     7 C7      35.4714 -11.3913  11.7890   C.2       1 RES1   0.0000
     8 C8      35.7284 -11.3794  10.4058   C.2       1 RES1   0.0000
     9 N9      34.9532 -10.6526   9.5780   N.2       1 RES1   0.0000
    10 C10     33.8885  -9.7793  10.0490   C.3       1 RES1   0.0000
    11 C11     33.5902  -8.6687   9.0238   C.2       1 RES1   0.0000
    12 C12     33.2793  -7.3566   9.4259   C.2       1 RES1   0.0000
    13 C13     33.0713  -6.3350   8.4620   C.2       1 RES1   0.0000
    14 C14     33.2038  -6.6302   7.0942   C.2       1 RES1   0.0000
    15 C15     33.5715  -7.9368   6.6964   C.2       1 RES1   0.0000
    16 Cl16    33.7482  -8.3724   4.9989   Cl        1 RES1   0.0000
    17 C17     33.7498  -8.9471   7.6566   C.2       1 RES1   0.0000
    18 C18     32.5794 -10.5410  10.2650   C.2       1 RES1   0.0000
    19 C19     31.7208 -10.2854  11.3472   C.2       1 RES1   0.0000
    20 C20     30.5233 -11.0175  11.4393   C.2       1 RES1   0.0000
    21 C21     30.2144 -11.9988  10.4822   C.2       1 RES1   0.0000
    22 C22     31.1098 -12.2182   9.4251   C.2       1 RES1   0.0000
    23 N23     32.2494 -11.4876   9.3529   N.2       1 RES1   0.0000
    24 C24     36.7600 -12.1636   9.8612   C.2       1 RES1   0.0000
    25 N25     37.0275 -12.0445   8.5174   N.2       1 RES1   0.0000
    26 C26     37.6453 -11.0532   7.8092   C.2       1 RES1   0.0000
    27 N27     38.0921  -9.9734   8.5114   N.2       1 RES1   0.0000
    28 C28     38.7297  -8.9286   7.9057   C.2       1 RES1   0.0000
    29 C29     38.9502  -8.9672   6.5143   C.2       1 RES1   0.0000
    30 C30     38.4867 -10.0977   5.8050   C.2       1 RES1   0.0000
    31 N31     37.8574 -11.1100   6.4650   N.2       1 RES1   0.0000
    32 C32     37.5281 -12.9643  10.7323   C.2       1 RES1   0.0000
@<TRIPOS>BOND
     1     1     2    1
     2     2     3    2
     3     2     4    2
     4     2     5    1
     5     5     6    2
     6     6     7    1
     7     7     8    2
     8     8     9    1
     9    10     9    1
    10    10    11    1
    11    11    12    2
    12    12    13    1
    13    13    14    2
    14    14    15    1
    15    15    16    1
    16    15    17    2
    17    10    18    1
    18    18    19    2
    19    19    20    1
    20    20    21    2
    21    21    22    1
    22    22    23    2
    23     8    24    1
    24    24    25    1
    25    25    26    1
    26    26    27    2
    27    27    28    1
    28    28    29    2
    29    29    30    1
    30    30    31    2
    31    24    32    2
    32    32     5    1
    33    17    11    1
    34    23    18    1
    35    31    26    1
@<TRIPOS>SUBSTRUCTURE
     1 RES1        1 GROUP             0 ****  ****    0  
@<TRIPOS>MOLECULE
ligand_94
    32    35     1     0     0
SMALL
NO_CHARGES
****
Generated from the CSD

@<TRIPOS>ATOM
     1 C1      37.1630 -15.4547  13.4051   C.3       1 RES1   0.0000
     2 S2      38.1940 -13.9876  13.1960   S.o2      1 RES1   0.0000
     3 O3      38.2538 -13.2435  14.4487   O.2       1 RES1   0.0000
     4 O4      39.4097 -14.3369  12.5031   O.2       1 RES1   0.0000
     5 C5      37.2327 -13.0003  12.0980   C.2       1 RES1   0.0000
     6 C6      36.1951 -12.2238  12.6342   C.2       1 RES1   0.0000
     7 C7      35.4714 -11.3913  11.7890   C.2       1 RES1   0.0000
     8 C8      35.7284 -11.3794  10.4058   C.2       1 RES1   0.0000
     9 N9      34.9532 -10.6526   9.5780   N.2       1 RES1   0.0000
    10 C10     33.8815  -9.7875  10.0483   C.3       1 RES1   0.0000
    11 C11     33.5796  -8.6754   9.0258   C.2       1 RES1   0.0000
    12 C12     33.2593  -7.3666   9.4312   C.2       1 RES1   0.0000
    13 C13     33.0480  -6.3432   8.4698   C.2       1 RES1   0.0000
    14 C14     33.1867  -6.6331   7.1016   C.2       1 RES1   0.0000
    15 C15     33.5638  -7.9362   6.7007   C.2       1 RES1   0.0000
    16 Cl16    33.7486  -8.3650   5.0024   Cl        1 RES1   0.0000
    17 C17     33.7453  -8.9484   7.6582   C.2       1 RES1   0.0000
    18 C18     32.5765 -10.5582  10.2574   C.2       1 RES1   0.0000
    19 C19     31.7127 -10.3116  11.3377   C.2       1 RES1   0.0000
    20 C20     30.5196 -11.0515  11.4234   C.2       1 RES1   0.0000
    21 C21     30.2200 -12.0315  10.4621   C.2       1 RES1   0.0000
    22 C22     31.1203 -12.2418   9.4072   C.2       1 RES1   0.0000
    23 N23     32.2554 -11.5038   9.3412   N.2       1 RES1   0.0000
    24 C24     36.7600 -12.1636   9.8612   C.2       1 RES1   0.0000
    25 N25     37.0275 -12.0445   8.5174   N.2       1 RES1   0.0000
    26 C26     36.3654 -12.5260   7.4239   C.2       1 RES1   0.0000
    27 N27     35.2379 -13.2577   7.6522   N.2       1 RES1   0.0000
    28 C28     34.4948 -13.7807   6.6327   C.2       1 RES1   0.0000
    29 C29     34.8906 -13.5486   5.3001   C.2       1 RES1   0.0000
    30 C30     36.0573 -12.7820   5.0835   C.2       1 RES1   0.0000
    31 N31     36.7573 -12.2857   6.1419   N.2       1 RES1   0.0000
    32 C32     37.5281 -12.9643  10.7323   C.2       1 RES1   0.0000
@<TRIPOS>BOND
     1     1     2    1
     2     2     3    2
     3     2     4    2
     4     2     5    1
     5     5     6    2
     6     6     7    1
     7     7     8    2
     8     8     9    1
     9    10     9    1
    10    10    11    1
    11    11    12    2
    12    12    13    1
    13    13    14    2
    14    14    15    1
    15    15    16    1
    16    15    17    2
    17    10    18    1
    18    18    19    2
    19    19    20    1
    20    20    21    2
    21    21    22    1
    22    22    23    2
    23     8    24    1
    24    24    25    1
    25    25    26    1
    26    26    27    2
    27    27    28    1
    28    28    29    2
    29    29    30    1
    30    30    31    2
    31    24    32    2
    32    32     5    1
    33    17    11    1
    34    23    18    1
    35    31    26    1
@<TRIPOS>SUBSTRUCTURE
     1 RES1        1 GROUP             0 ****  ****    0  
@<TRIPOS>MOLECULE
ligand_95
    32    35     1     0     0
SMALL
NO_CHARGES
****
Generated from the CSD

@<TRIPOS>ATOM
     1 C1      37.1630 -15.4547  13.4051   C.3       1 RES1   0.0000
     2 S2      38.1940 -13.9876  13.1960   S.o2      1 RES1   0.0000
     3 O3      38.2538 -13.2435  14.4487   O.2       1 RES1   0.0000
     4 O4      39.4097 -14.3369  12.5031   O.2       1 RES1   0.0000
     5 C5      37.2327 -13.0003  12.0980   C.2       1 RES1   0.0000
     6 C6      36.1951 -12.2238  12.6342   C.2       1 RES1   0.0000
     7 C7      35.4714 -11.3913  11.7890   C.2       1 RES1   0.0000
     8 C8      35.7284 -11.3794  10.4058   C.2       1 RES1   0.0000
     9 N9      34.9532 -10.6526   9.5780   N.2       1 RES1   0.0000
    10 C10     33.8885  -9.7793  10.0490   C.3       1 RES1   0.0000
    11 C11     33.5902  -8.6687   9.0238   C.2       1 RES1   0.0000
    12 C12     33.2793  -7.3566   9.4259   C.2       1 RES1   0.0000
    13 C13     33.0713  -6.3350   8.4620   C.2       1 RES1   0.0000
    14 C14     33.2038  -6.6302   7.0942   C.2       1 RES1   0.0000
    15 C15     33.5715  -7.9368   6.6964   C.2       1 RES1   0.0000
    16 Cl16    33.7482  -8.3724   4.9989   Cl        1 RES1   0.0000
    17 C17     33.7498  -8.9471   7.6566   C.2       1 RES1   0.0000
    18 C18     32.5794 -10.5410  10.2650   C.2       1 RES1   0.0000
    19 C19     31.7208 -10.2854  11.3472   C.2       1 RES1   0.0000
    20 C20     30.5233 -11.0175  11.4393   C.2       1 RES1   0.0000
    21 C21     30.2144 -11.9988  10.4822   C.2       1 RES1   0.0000
    22 C22     31.1098 -12.2182   9.4251   C.2       1 RES1   0.0000
    23 N23     32.2494 -11.4876   9.3529   N.2       1 RES1   0.0000
    24 C24     36.7600 -12.1636   9.8612   C.2       1 RES1   0.0000
    25 N25     37.0275 -12.0445   8.5174   N.2       1 RES1   0.0000
    26 C26     37.6453 -11.0532   7.8092   C.2       1 RES1   0.0000
    27 N27     38.0921  -9.9734   8.5114   N.2       1 RES1   0.0000
    28 C28     38.7297  -8.9286   7.9057   C.2       1 RES1   0.0000
    29 C29     38.9502  -8.9672   6.5143   C.2       1 RES1   0.0000
    30 C30     38.4867 -10.0977   5.8050   C.2       1 RES1   0.0000
    31 N31     37.8574 -11.1100   6.4650   N.2       1 RES1   0.0000
    32 C32     37.5281 -12.9643  10.7323   C.2       1 RES1   0.0000
@<TRIPOS>BOND
     1     1     2    1
     2     2     3    2
     3     2     4    2
     4     2     5    1
     5     5     6    2
     6     6     7    1
     7     7     8    2
     8     8     9    1
     9    10     9    1
    10    10    11    1
    11    11    12    2
    12    12    13    1
    13    13    14    2
    14    14    15    1
    15    15    16    1
    16    15    17    2
    17    10    18    1
    18    18    19    2
    19    19    20    1
    20    20    21    2
    21    21    22    1
    22    22    23    2
    23     8    24    1
    24    24    25    1
    25    25    26    1
    26    26    27    2
    27    27    28    1
    28    28    29    2
    29    29    30    1
    30    30    31    2
    31    24    32    2
    32    32     5    1
    33    17    11    1
    34    23    18    1
    35    31    26    1
@<TRIPOS>SUBSTRUCTURE
     1 RES1        1 GROUP             0 ****  ****    0  
@<TRIPOS>MOLECULE
ligand_96
    32    35     1     0     0
SMALL
NO_CHARGES
****
Generated from the CSD

@<TRIPOS>ATOM
     1 C1      35.7323 -10.7107  17.1762   C.3       1 RES1   0.0000
     2 S2      36.1774 -12.0342  16.0317   S.o2      1 RES1   0.0000
     3 O3      37.6150 -12.2719  16.0870   O.2       1 RES1   0.0000
     4 O4      35.2560 -13.1348  16.1721   O.2       1 RES1   0.0000
     5 C5      35.8739 -11.2966  14.4607   C.2       1 RES1   0.0000
     6 C6      34.6590 -11.5738  13.8171   C.2       1 RES1   0.0000
     7 C7      34.3793 -10.9477  12.6085   C.2       1 RES1   0.0000
     8 C8      35.3288 -10.1032  12.0046   C.2       1 RES1   0.0000
     9 N9      35.0965  -9.5853  10.7830   N.2       1 RES1   0.0000
    10 C10     33.8264  -9.7298  10.0872   C.3       1 RES1   0.0000
    11 C11     33.6181  -8.5881   9.0739   C.2       1 RES1   0.0000
    12 C12     33.1614  -7.3190   9.4748   C.2       1 RES1   0.0000
    13 C13     33.0384  -6.2639   8.5326   C.2       1 RES1   0.0000
    14 C14     33.4021  -6.4807   7.1924   C.2       1 RES1   0.0000
    15 C15     33.9137  -7.7412   6.8050   C.2       1 RES1   0.0000
    16 Cl16    34.3817  -8.0785   5.1407   Cl        1 RES1   0.0000
    17 C17     34.0072  -8.7866   7.7391   C.2       1 RES1   0.0000
    18 C18     33.7546 -11.0376   9.2965   C.2       1 RES1   0.0000
    19 C19     34.7662 -12.0113   9.3441   C.2       1 RES1   0.0000
    20 C20     34.5909 -13.1956   8.6059   C.2       1 RES1   0.0000
    21 C21     33.4408 -13.3800   7.8201   C.2       1 RES1   0.0000
    22 C22     32.4644 -12.3732   7.8033   C.2       1 RES1   0.0000
    23 N23     32.6525 -11.2485   8.5364   N.2       1 RES1   0.0000
    24 C24     36.5526  -9.8302  12.6398   C.2       1 RES1   0.0000
    25 N25     37.4048  -8.9266  12.0490   N.2       1 RES1   0.0000
    26 C26     38.6807  -8.5559  12.3660   C.2       1 RES1   0.0000
    27 N27     39.2631  -7.6020  11.5852   N.2       1 RES1   0.0000
    28 C28     40.5317  -7.1519  11.8162   C.2       1 RES1   0.0000
    29 C29     41.2623  -7.6737  12.9025   C.2       1 RES1   0.0000
    30 C30     40.6394  -8.6557  13.7045   C.2       1 RES1   0.0000
    31 N31     39.3701  -9.0647  13.4247   N.2       1 RES1   0.0000
    32 C32     36.8074 -10.4245  13.8934   C.2       1 RES1   0.0000
@<TRIPOS>BOND
     1     1     2    1
     2     2     3    2
     3     2     4    2
     4     2     5    1
     5     5     6    2
     6     6     7    1
     7     7     8    2
     8     8     9    1
     9    10     9    1
    10    10    11    1
    11    11    12    2
    12    12    13    1
    13    13    14    2
    14    14    15    1
    15    15    16    1
    16    15    17    2
    17    10    18    1
    18    18    19    2
    19    19    20    1
    20    20    21    2
    21    21    22    1
    22    22    23    2
    23     8    24    1
    24    24    25    1
    25    25    26    1
    26    26    27    2
    27    27    28    1
    28    28    29    2
    29    29    30    1
    30    30    31    2
    31    24    32    2
    32    32     5    1
    33    17    11    1
    34    23    18    1
    35    31    26    1
@<TRIPOS>SUBSTRUCTURE
     1 RES1        1 GROUP             0 ****  ****    0  
@<TRIPOS>MOLECULE
ligand_97
    32    35     1     0     0
SMALL
NO_CHARGES
****
Generated from the CSD

@<TRIPOS>ATOM
     1 C1      36.7567 -13.6840  15.5824   C.3       1 RES1   0.0000
     2 S2      36.1774 -12.0342  16.0317   S.o2      1 RES1   0.0000
     3 O3      34.8763 -12.1283  16.6834   O.2       1 RES1   0.0000
     4 O4      37.2460 -11.2913  16.6532   O.2       1 RES1   0.0000
     5 C5      35.8739 -11.2966  14.4607   C.2       1 RES1   0.0000
     6 C6      34.6590 -11.5738  13.8171   C.2       1 RES1   0.0000
     7 C7      34.3793 -10.9477  12.6085   C.2       1 RES1   0.0000
     8 C8      35.3288 -10.1032  12.0046   C.2       1 RES1   0.0000
     9 N9      35.0965  -9.5853  10.7830   N.2       1 RES1   0.0000
    10 C10     33.8264  -9.7298  10.0872   C.3       1 RES1   0.0000
    11 C11     33.6181  -8.5881   9.0739   C.2       1 RES1   0.0000
    12 C12     33.1614  -7.3190   9.4748   C.2       1 RES1   0.0000
    13 C13     33.0384  -6.2639   8.5326   C.2       1 RES1   0.0000
    14 C14     33.4021  -6.4807   7.1924   C.2       1 RES1   0.0000
    15 C15     33.9137  -7.7412   6.8050   C.2       1 RES1   0.0000
    16 Cl16    34.3817  -8.0785   5.1407   Cl        1 RES1   0.0000
    17 C17     34.0072  -8.7866   7.7391   C.2       1 RES1   0.0000
    18 C18     33.7546 -11.0376   9.2965   C.2       1 RES1   0.0000
    19 C19     34.7662 -12.0113   9.3441   C.2       1 RES1   0.0000
    20 C20     34.5909 -13.1956   8.6059   C.2       1 RES1   0.0000
    21 C21     33.4408 -13.3800   7.8201   C.2       1 RES1   0.0000
    22 C22     32.4644 -12.3732   7.8033   C.2       1 RES1   0.0000
    23 N23     32.6525 -11.2485   8.5364   N.2       1 RES1   0.0000
    24 C24     36.5526  -9.8302  12.6398   C.2       1 RES1   0.0000
    25 N25     37.4048  -8.9266  12.0490   N.2       1 RES1   0.0000
    26 C26     38.6807  -8.5559  12.3660   C.2       1 RES1   0.0000
    27 N27     39.2631  -7.6020  11.5852   N.2       1 RES1   0.0000
    28 C28     40.5317  -7.1519  11.8162   C.2       1 RES1   0.0000
    29 C29     41.2623  -7.6737  12.9025   C.2       1 RES1   0.0000
    30 C30     40.6394  -8.6557  13.7045   C.2       1 RES1   0.0000
    31 N31     39.3701  -9.0647  13.4247   N.2       1 RES1   0.0000
    32 C32     36.8074 -10.4245  13.8934   C.2       1 RES1   0.0000
@<TRIPOS>BOND
     1     1     2    1
     2     2     3    2
     3     2     4    2
     4     2     5    1
     5     5     6    2
     6     6     7    1
     7     7     8    2
     8     8     9    1
     9    10     9    1
    10    10    11    1
    11    11    12    2
    12    12    13    1
    13    13    14    2
    14    14    15    1
    15    15    16    1
    16    15    17    2
    17    10    18    1
    18    18    19    2
    19    19    20    1
    20    20    21    2
    21    21    22    1
    22    22    23    2
    23     8    24    1
    24    24    25    1
    25    25    26    1
    26    26    27    2
    27    27    28    1
    28    28    29    2
    29    29    30    1
    30    30    31    2
    31    24    32    2
    32    32     5    1
    33    17    11    1
    34    23    18    1
    35    31    26    1
@<TRIPOS>SUBSTRUCTURE
     1 RES1        1 GROUP             0 ****  ****    0  
@<TRIPOS>MOLECULE
ligand_98
    32    35     1     0     0
SMALL
NO_CHARGES
****
Generated from the CSD

@<TRIPOS>ATOM
     1 C1      33.9663 -17.2363  10.0547   C.3       1 RES1   0.0000
     2 S2      33.6397 -16.4126  11.6277   S.o2      1 RES1   0.0000
     3 O3      32.3679 -16.8739  12.1718   O.2       1 RES1   0.0000
     4 O4      34.8266 -16.4311  12.4469   O.2       1 RES1   0.0000
     5 C5      33.3721 -14.7425  11.1341   C.2       1 RES1   0.0000
     6 C6      34.4380 -13.8370  11.2390   C.2       1 RES1   0.0000
     7 C7      34.2600 -12.5331  10.7926   C.2       1 RES1   0.0000
     8 C8      33.0094 -12.1082  10.3080   C.2       1 RES1   0.0000
     9 N9      32.8126 -10.8171   9.9783   N.2       1 RES1   0.0000
    10 C10     33.8831  -9.8315   9.9532   C.3       1 RES1   0.0000
    11 C11     33.5467  -8.6741   8.9937   C.2       1 RES1   0.0000
    12 C12     33.0558  -7.4427   9.4654   C.2       1 RES1   0.0000
    13 C13     32.8138  -6.3691   8.5680   C.2       1 RES1   0.0000
    14 C14     33.0928  -6.5284   7.1998   C.2       1 RES1   0.0000
    15 C15     33.6389  -7.7488   6.7380   C.2       1 RES1   0.0000
    16 Cl16    34.0052  -8.0136   5.0356   Cl        1 RES1   0.0000
    17 C17     33.8505  -8.8139   7.6296   C.2       1 RES1   0.0000
    18 C18     34.1159  -9.2069  11.3304   C.2       1 RES1   0.0000
    19 C19     33.4290  -9.6272  12.4816   C.2       1 RES1   0.0000
    20 C20     33.7385  -9.0118  13.7080   C.2       1 RES1   0.0000
    21 C21     34.6934  -7.9827  13.7662   C.2       1 RES1   0.0000
    22 C22     35.3453  -7.5973  12.5856   C.2       1 RES1   0.0000
    23 N23     35.0382  -8.2179  11.4202   N.2       1 RES1   0.0000
    24 C24     31.9343 -13.0086  10.2107   C.2       1 RES1   0.0000
    25 N25     30.7623 -12.5636   9.6450   N.2       1 RES1   0.0000
    26 C26     29.5406 -13.1622   9.5221   C.2       1 RES1   0.0000
    27 N27     28.5648 -12.4577   8.8817   N.2       1 RES1   0.0000
    28 C28     27.3094 -12.9626   8.6968   C.2       1 RES1   0.0000
    29 C29     27.0099 -14.2573   9.1660   C.2       1 RES1   0.0000
    30 C30     28.0360 -14.9747   9.8204   C.2       1 RES1   0.0000
    31 N31     29.2700 -14.4180   9.9747   N.2       1 RES1   0.0000
    32 C32     32.1376 -14.3453  10.6129   C.2       1 RES1   0.0000
@<TRIPOS>BOND
     1     1     2    1
     2     2     3    2
     3     2     4    2
     4     2     5    1
     5     5     6    2
     6     6     7    1
     7     7     8    2
     8     8     9    1
     9    10     9    1
    10    10    11    1
    11    11    12    2
    12    12    13    1
    13    13    14    2
    14    14    15    1
    15    15    16    1
    16    15    17    2
    17    10    18    1
    18    18    19    2
    19    19    20    1
    20    20    21    2
    21    21    22    1
    22    22    23    2
    23     8    24    1
    24    24    25    1
    25    25    26    1
    26    26    27    2
    27    27    28    1
    28    28    29    2
    29    29    30    1
    30    30    31    2
    31    24    32    2
    32    32     5    1
    33    17    11    1
    34    23    18    1
    35    31    26    1
@<TRIPOS>SUBSTRUCTURE
     1 RES1        1 GROUP             0 ****  ****    0  
@<TRIPOS>MOLECULE
ligand_99
    32    35     1     0     0
SMALL
NO_CHARGES
****
Generated from the CSD

@<TRIPOS>ATOM
     1 C1      33.4316 -16.3278  13.4190   C.3       1 RES1   0.0000
     2 S2      33.6397 -16.4126  11.6277   S.o2      1 RES1   0.0000
     3 O3      35.0320 -16.7029  11.3056   O.2       1 RES1   0.0000
     4 O4      32.5827 -17.2041  11.0478   O.2       1 RES1   0.0000
     5 C5      33.3721 -14.7425  11.1341   C.2       1 RES1   0.0000
     6 C6      34.4380 -13.8370  11.2390   C.2       1 RES1   0.0000
     7 C7      34.2600 -12.5331  10.7926   C.2       1 RES1   0.0000
     8 C8      33.0094 -12.1082  10.3080   C.2       1 RES1   0.0000
     9 N9      32.8126 -10.8171   9.9783   N.2       1 RES1   0.0000
    10 C10     33.8831  -9.8315   9.9532   C.3       1 RES1   0.0000
    11 C11     33.5467  -8.6741   8.9937   C.2       1 RES1   0.0000
    12 C12     33.0558  -7.4427   9.4654   C.2       1 RES1   0.0000
    13 C13     32.8138  -6.3691   8.5680   C.2       1 RES1   0.0000
    14 C14     33.0928  -6.5284   7.1998   C.2       1 RES1   0.0000
    15 C15     33.6389  -7.7488   6.7380   C.2       1 RES1   0.0000
    16 Cl16    34.0052  -8.0136   5.0356   Cl        1 RES1   0.0000
    17 C17     33.8505  -8.8139   7.6296   C.2       1 RES1   0.0000
    18 C18     34.1159  -9.2069  11.3304   C.2       1 RES1   0.0000
    19 C19     33.4290  -9.6272  12.4816   C.2       1 RES1   0.0000
    20 C20     33.7385  -9.0118  13.7080   C.2       1 RES1   0.0000
    21 C21     34.6934  -7.9827  13.7662   C.2       1 RES1   0.0000
    22 C22     35.3453  -7.5973  12.5856   C.2       1 RES1   0.0000
    23 N23     35.0382  -8.2179  11.4202   N.2       1 RES1   0.0000
    24 C24     31.9343 -13.0086  10.2107   C.2       1 RES1   0.0000
    25 N25     30.7623 -12.5636   9.6450   N.2       1 RES1   0.0000
    26 C26     29.5406 -13.1622   9.5221   C.2       1 RES1   0.0000
    27 N27     28.5648 -12.4577   8.8817   N.2       1 RES1   0.0000
    28 C28     27.3094 -12.9626   8.6968   C.2       1 RES1   0.0000
    29 C29     27.0099 -14.2573   9.1660   C.2       1 RES1   0.0000
    30 C30     28.0360 -14.9747   9.8204   C.2       1 RES1   0.0000
    31 N31     29.2700 -14.4180   9.9747   N.2       1 RES1   0.0000
    32 C32     32.1376 -14.3453  10.6129   C.2       1 RES1   0.0000
@<TRIPOS>BOND
     1     1     2    1
     2     2     3    2
     3     2     4    2
     4     2     5    1
     5     5     6    2
     6     6     7    1
     7     7     8    2
     8     8     9    1
     9    10     9    1
    10    10    11    1
    11    11    12    2
    12    12    13    1
    13    13    14    2
    14    14    15    1
    15    15    16    1
    16    15    17    2
    17    10    18    1
    18    18    19    2
    19    19    20    1
    20    20    21    2
    21    21    22    1
    22    22    23    2
    23     8    24    1
    24    24    25    1
    25    25    26    1
    26    26    27    2
    27    27    28    1
    28    28    29    2
    29    29    30    1
    30    30    31    2
    31    24    32    2
    32    32     5    1
    33    17    11    1
    34    23    18    1
    35    31    26    1
@<TRIPOS>SUBSTRUCTURE
     1 RES1        1 GROUP             0 ****  ****    0  
