@<TRIPOS>MOLECULE
3h8b_ligand
   153   158     1     0     0
SMALL
USER_CHARGES
****
Generated from the CSD

@<TRIPOS>ATOM
     1 C1       3.2190  -4.8430   6.0950   C.3       1 NSY    0.0467
     2 C2       2.0850  -4.5470   6.7180   C.2       1 NSY    0.1803
     3 O3       1.6510  -3.4260   6.8170   O.2       1 NSY   -0.3967
     4 C4       3.8220  -6.6690   1.9450   C.3       1 NSY   -0.0215
     5 C5       4.9600  -6.4010   3.0020   C.2       1 NSY   -0.0949
     6 C6       4.6670  -5.8160   4.2790   C.2       1 NSY   -0.0931
     7 C7       3.2370  -5.4440   4.6930   C.3       1 NSY   -0.0075
     8 C8       1.9980  -5.7040   3.6840   C.3       1 NSY   -0.0397
     9 C9       2.3640  -6.3130   2.3340   C.3       1 NSY   -0.0414
    10 C10      5.3810  -8.5000  -2.0260   C.3       1 NSY   -0.0530
    11 C11      3.2140  -7.5400  -0.5650   C.3       1 NSY   -0.0484
    12 C12      4.2050  -7.2650   0.6050   C.3       1 NSY   -0.0317
    13 C13      3.8830  -8.1630  -1.8530   C.3       1 NSY   -0.0527
    14 C14      5.8290  -7.6190   0.4110   C.3       1 NSY   -0.0484
    15 C15      6.3650  -8.2210  -0.8650   C.3       1 NSY   -0.0527
    16 N16      1.4520  -5.7410   7.3240   N.am      1 NSY   -0.2640
    17 C17      0.2690  -5.8730   8.1140   C.3       1 NSY    0.1373
    18 C18      0.4080  -7.3090   8.4670   C.2       1 NSY    0.2057
    19 O19      1.0870  -8.1420   7.7260   O.2       1 NSY   -0.3942
    20 C20     -0.9400  -5.6350   7.3670   C.3       1 NSY    0.0043
    21 C22     -5.3240  -3.4670   2.7760   C.3       1 NSY    0.0709
    22 C23     -5.1570  -2.9890   1.5860   C.ar      1 NSY   -0.0233
    23 C24     -4.3620  -1.7430   1.2910   C.ar      1 NSY   -0.0566
    24 C25     -5.7840  -3.6990   0.4520   C.ar      1 NSY   -0.0566
    25 C26     -4.1590  -1.2380  -0.0660   C.ar      1 NSY   -0.0596
    26 C27     -5.5910  -3.1890  -0.9580   C.ar      1 NSY   -0.0596
    27 C28     -4.7680  -1.9300  -1.2490   C.ar      1 NSY   -0.0239
    28 N29     -0.2560  -7.6530   9.7560   N.am      1 NSY   -0.2636
    29 C30     -0.1800  -8.9400  10.3270   C.3       1 NSY    0.1311
    30 C31     -0.5600 -10.2780   9.3930   C.3       1 NSY   -0.0092
    31 C32     -1.8460 -10.4580   8.4630   C.3       1 NSY   -0.0156
    32 C33     -3.1900 -10.4680   9.2210   C.3       1 NSY    0.0627
    33 N34     -4.4900 -10.6280   8.5320   N.pl3     1 NSY   -0.2723
    34 C35     -5.7750 -10.4070   9.2310   C.cat     1 NSY    0.2882
    35 N36     -6.1100 -11.0180  10.4230   N.pl3     1 NSY   -0.2849
    36 N37     -6.7570  -9.5640   8.7560   N.pl3     1 NSY   -0.2849
    37 C38     -0.9180  -9.1040  11.5780   C.2       1 NSY    0.2039
    38 O39     -0.5700 -10.0300  12.3160   O.2       1 NSY   -0.3944
    39 N40     -1.9020  -8.2380  11.8580   N.am      1 NSY   -0.2636
    40 C41     -2.6740  -8.3110  13.0950   C.3       1 NSY    0.1326
    41 C42     -3.6910  -9.4910  12.8320   C.2       1 NSY    0.2018
    42 O43     -4.4240  -9.4710  11.8860   O.2       1 NSY   -0.3945
    43 C44     -3.5480  -7.0460  13.4250   C.3       1 NSY   -0.0030
    44 C45     -4.3000  -7.2990  14.7930   C.3       1 NSY   -0.0202
    45 C46     -3.5580  -7.0930  16.1120   C.3       1 NSY   -0.0418
    46 C47     -5.8390  -7.7690  14.8120   C.2       1 NSY   -0.0954
    47 C48     -4.2740  -7.3350  17.4240   C.3       1 NSY   -0.0446
    48 C49     -6.5010  -7.9930  16.1200   C.2       1 NSY   -0.0984
    49 C50     -5.7620  -7.7900  17.4090   C.3       1 NSY   -0.0363
    50 C52     -2.9550 -13.5160  13.4070   C.3       1 NSY   -0.0392
    51 C53     -2.9040 -13.9990  14.9580   C.3       1 NSY   -0.0501
    52 C54     -1.6780 -14.8390  15.3720   C.3       1 NSY   -0.0528
    53 C55     -0.6130 -15.1710  14.3620   C.3       1 NSY   -0.0530
    54 C56     -0.7030 -14.7050  12.9310   C.3       1 NSY   -0.0528
    55 C57     -1.8610 -13.8760  12.4340   C.3       1 NSY   -0.0501
    56 C58     -4.0100 -12.7410  12.8920   C.3       1 NSY   -0.0299
    57 C59     -4.6700 -11.6990  13.6610   C.3       1 NSY    0.0312
    58 N60     -3.6630 -10.5480  13.8560   N.am      1 NSY   -0.2850
    59 C62     -4.5050  -1.4220  -2.5380   C.ar      1 NSY   -0.0219
    60 C63     -3.6110  -0.1660  -2.7300   C.ar      1 NSY   -0.0556
    61 C64     -5.0850  -2.0480  -3.8130   C.ar      1 NSY   -0.0556
    62 C65     -3.3290   0.3750  -4.1140   C.ar      1 NSY   -0.0622
    63 C66     -4.7970  -1.4910  -5.1290   C.ar      1 NSY   -0.0622
    64 C67     -3.9280  -0.2870  -5.2670   C.ar      1 NSY   -0.0626
    65 C68     -4.2830  -3.9460   3.5910   C.2       1 NSY    0.1893
    66 C69     -1.8170  -4.4650   7.6230   C.2       1 NSY   -0.0923
    67 C70     -2.5330  -3.7690   6.8480   C.2       1 NSY   -0.0766
    68 C71     -2.6960  -3.9720   5.3500   C.3       1 NSY    0.0480
    69 N72     -3.8750  -3.2960   4.6040   N.am      1 NSY   -0.2774
    70 O73     -3.8720  -4.9570   3.2030   O.2       1 NSY   -0.3939
    71 H1       3.7493  -5.5565   6.7428   H         1 NSY    0.0525
    72 H2       3.7917  -3.9057   6.0358   H         1 NSY    0.0525
    73 H3       3.9522  -5.6599   1.5269   H         1 NSY    0.0426
    74 H4       5.9881  -6.6648   2.7585   H         1 NSY    0.0453
    75 H5       5.4837  -5.6305   4.9751   H         1 NSY    0.0454
    76 H6       3.0591  -6.4437   5.1160   H         1 NSY    0.0448
    77 H7       1.5052  -4.7385   3.4972   H         1 NSY    0.0290
    78 H8       1.2928  -6.3852   4.1825   H         1 NSY    0.0290
    79 H9       1.7907  -7.2485   2.2562   H         1 NSY    0.0289
    80 H10      2.0104  -5.6018   1.5729   H         1 NSY    0.0289
    81 H11      5.7395  -7.9267  -2.8936   H         1 NSY    0.0265
    82 H12      5.4433  -9.5759  -2.2462   H         1 NSY    0.0265
    83 H13      2.7432  -6.5871  -0.8485   H         1 NSY    0.0270
    84 H14      2.4429  -8.2376  -0.2062   H         1 NSY    0.0270
    85 H15      4.0063  -8.2745   0.9940   H         1 NSY    0.0323
    86 H16      3.3526  -9.1115  -2.0231   H         1 NSY    0.0265
    87 H17      3.6495  -7.4612  -2.6672   H         1 NSY    0.0265
    88 H18      6.0907  -8.3203   1.2170   H         1 NSY    0.0270
    89 H19      6.3710  -6.6731   0.5576   H         1 NSY    0.0270
    90 H20      7.1328  -7.5336  -1.2496   H         1 NSY    0.0265
    91 H21      6.8321  -9.1807  -0.5988   H         1 NSY    0.0265
    92 H22      1.9341  -6.5999   7.1510   H         1 NSY    0.1884
    93 H23      0.2888  -5.2194   8.9985   H         1 NSY    0.0821
    94 H24     -1.5689  -6.5258   7.5113   H         1 NSY    0.0435
    95 H25     -0.6386  -5.5659   6.3114   H         1 NSY    0.0435
    96 H26     -6.0229  -4.3088   2.6622   H         1 NSY    0.0662
    97 H27     -5.8071  -2.6647   3.3529   H         1 NSY    0.0662
    98 H28     -3.9226  -1.1988   2.1191   H         1 NSY    0.0564
    99 H29     -6.3821  -4.5852   0.6310   H         1 NSY    0.0564
   100 H30     -3.5584  -0.3487  -0.2196   H         1 NSY    0.0610
   101 H31     -6.0455  -3.7266  -1.7823   H         1 NSY    0.0610
   102 H32     -0.7750  -6.9444  10.2340   H         1 NSY    0.1883
   103 H33      0.8849  -9.0515  10.5789   H         1 NSY    0.0800
   104 H34     -0.6012 -11.1181  10.1019   H         1 NSY    0.0313
   105 H35      0.2995 -10.4086   8.7191   H         1 NSY    0.0313
   106 H36     -1.7489 -11.4120   7.9240   H         1 NSY    0.0301
   107 H37     -1.8658  -9.6289   7.7404   H         1 NSY    0.0301
   108 H38     -3.2449  -9.5097   9.7583   H         1 NSY    0.0689
   109 H39     -3.1254 -11.2921   9.9467   H         1 NSY    0.0689
   110 H40     -4.5004 -10.9006   7.5388   H         1 NSY    0.2642
   111 H41     -7.0211 -10.8243  10.8628   H         1 NSY    0.2615
   112 H42     -5.4489 -11.6674  10.8725   H         1 NSY    0.2615
   113 H43     -6.6149  -9.0540   7.8725   H         1 NSY    0.2615
   114 H44     -7.6328  -9.4441   9.2847   H         1 NSY    0.2615
   115 H45     -2.1144  -7.5178  11.1975   H         1 NSY    0.1883
   116 H46     -2.0059  -8.5261  13.9420   H         1 NSY    0.0801
   117 H47     -4.2824  -6.8827  12.6225   H         1 NSY    0.0335
   118 H48     -2.9009  -6.1611  13.5154   H         1 NSY    0.0335
   119 H49     -3.9799  -8.3512  14.7731   H         1 NSY    0.0425
   120 H50     -3.2148  -6.0480  16.1246   H         1 NSY    0.0289
   121 H51     -2.6871  -7.7648  16.0958   H         1 NSY    0.0289
   122 H52     -6.3843  -7.9198  13.8815   H         1 NSY    0.0453
   123 H53     -4.2327  -6.3929  17.9903   H         1 NSY    0.0286
   124 H54     -3.7072  -8.1103  17.9602   H         1 NSY    0.0286
   125 H55     -7.5424  -8.3106  16.1449   H         1 NSY    0.0450
   126 H56     -6.3249  -7.0330  17.9747   H         1 NSY    0.0388
   127 H57     -5.7994  -8.7504  17.9439   H         1 NSY    0.0388
   128 H58     -3.4990 -14.4376  13.1528   H         1 NSY    0.0301
   129 H59     -3.8038 -14.6015  15.1512   H         1 NSY    0.0268
   130 H60     -2.9226 -13.0990  15.5902   H         1 NSY    0.0268
   131 H61     -2.0637 -15.7965  15.7519   H         1 NSY    0.0265
   132 H62     -1.1815 -14.2939  16.1883   H         1 NSY    0.0265
   133 H63     -0.5525 -16.2687  14.3262   H         1 NSY    0.0265
   134 H64      0.3283 -14.7647  14.7606   H         1 NSY    0.0265
   135 H65     -0.6842 -15.6123  12.3094   H         1 NSY    0.0265
   136 H66      0.2041 -14.1122  12.7421   H         1 NSY    0.0265
   137 H67     -1.4446 -12.9333  12.0495   H         1 NSY    0.0268
   138 H68     -2.3295 -14.4333  11.6094   H         1 NSY    0.0268
   139 H69     -4.7982 -13.4527  12.6054   H         1 NSY    0.0287
   140 H70     -3.6144 -12.2494  11.9910   H         1 NSY    0.0287
   141 H71     -4.9796 -12.0951  14.6394   H         1 NSY    0.0520
   142 H72     -5.5537 -11.3348  13.1165   H         1 NSY    0.0520
   143 H73     -3.0303 -10.5212  14.6299   H         1 NSY    0.1851
   144 H74     -3.1852   0.3274  -1.8638   H         1 NSY    0.0615
   145 H75     -5.7216  -2.9218  -3.7337   H         1 NSY    0.0615
   146 H76     -2.6914   1.2415  -4.2468   H         1 NSY    0.0615
   147 H77     -5.2175  -1.9553  -6.0136   H         1 NSY    0.0615
   148 H78     -3.7352   0.1093  -6.2574   H         1 NSY    0.0610
   149 H79     -1.8493  -4.1499   8.6649   H         1 NSY    0.0453
   150 H80     -3.0862  -2.9449   7.2962   H         1 NSY    0.0470
   151 H81     -2.7935  -5.0550   5.1842   H         1 NSY    0.0644
   152 H82     -1.7710  -3.6105   4.8772   H         1 NSY    0.0644
   153 H83     -4.2777  -2.4277   4.8935   H         1 NSY    0.1876
@<TRIPOS>BOND
     1     2     1    1
     2     1     7    1
     3     2     3    2
     4    16     2   am
     5     5     4    1
     6     9     4    1
     7     4    12    1
     8     6     5    2
     9     7     6    1
    10     7     8    1
    11     8     9    1
    12    13    10    1
    13    15    10    1
    14    12    11    1
    15    11    13    1
    16    12    14    1
    17    14    15    1
    18    17    16    1
    19    17    18    1
    20    20    17    1
    21    18    19    2
    22    18    28   am
    23    66    20    1
    24    21    22    1
    25    65    21    1
    26    22    23   ar
    27    22    24   ar
    28    23    25   ar
    29    24    26   ar
    30    25    27   ar
    31    26    27   ar
    32    27    59    1
    33    28    29    1
    34    29    30    1
    35    29    37    1
    36    30    31    1
    37    31    32    1
    38    32    33    1
    39    33    34   ar
    40    34    35   ar
    41    34    36   ar
    42    37    38    2
    43    37    39   am
    44    39    40    1
    45    40    41    1
    46    40    43    1
    47    41    42    2
    48    41    58   am
    49    43    44    1
    50    44    45    1
    51    44    46    1
    52    45    47    1
    53    46    48    2
    54    47    49    1
    55    48    49    1
    56    50    51    1
    57    50    55    1
    58    56    50    1
    59    51    52    1
    60    52    53    1
    61    54    53    1
    62    55    54    1
    63    57    56    1
    64    58    57    1
    65    59    60   ar
    66    59    61   ar
    67    60    62   ar
    68    61    63   ar
    69    62    64   ar
    70    63    64   ar
    71    69    65   am
    72    65    70    2
    73    67    66    2
    74    68    67    1
    75    68    69    1
    76     1    71    1
    77     1    72    1
    78     4    73    1
    79     5    74    1
    80     6    75    1
    81     7    76    1
    82     8    77    1
    83     8    78    1
    84     9    79    1
    85     9    80    1
    86    10    81    1
    87    10    82    1
    88    11    83    1
    89    11    84    1
    90    12    85    1
    91    13    86    1
    92    13    87    1
    93    14    88    1
    94    14    89    1
    95    15    90    1
    96    15    91    1
    97    16    92    1
    98    17    93    1
    99    20    94    1
   100    20    95    1
   101    21    96    1
   102    21    97    1
   103    23    98    1
   104    24    99    1
   105    25   100    1
   106    26   101    1
   107    28   102    1
   108    29   103    1
   109    30   104    1
   110    30   105    1
   111    31   106    1
   112    31   107    1
   113    32   108    1
   114    32   109    1
   115    33   110    1
   116    35   111    1
   117    35   112    1
   118    36   113    1
   119    36   114    1
   120    39   115    1
   121    40   116    1
   122    43   117    1
   123    43   118    1
   124    44   119    1
   125    45   120    1
   126    45   121    1
   127    46   122    1
   128    47   123    1
   129    47   124    1
   130    48   125    1
   131    49   126    1
   132    49   127    1
   133    50   128    1
   134    51   129    1
   135    51   130    1
   136    52   131    1
   137    52   132    1
   138    53   133    1
   139    53   134    1
   140    54   135    1
   141    54   136    1
   142    55   137    1
   143    55   138    1
   144    56   139    1
   145    56   140    1
   146    57   141    1
   147    57   142    1
   148    58   143    1
   149    60   144    1
   150    61   145    1
   151    62   146    1
   152    63   147    1
   153    64   148    1
   154    66   149    1
   155    67   150    1
   156    68   151    1
   157    68   152    1
   158    69   153    1
@<TRIPOS>SUBSTRUCTURE
     1 NSY         1 GROUP             0 ****  ****    0  
@<TRIPOS>MOLECULE
2xu4_ligand
    60    64     1     0     0
SMALL
USER_CHARGES
****
Generated from the CSD

@<TRIPOS>ATOM
     1 C1      -2.7165  -8.0442  12.7457   C.3       1 DJT    0.1342
     2 C2      -1.4111  -8.2714  12.0143   C.2       1 DJT    0.1971
     3 CL2     -4.7140  -7.5759  18.2946   Cl        1 DJT   -0.0687
     4 N3      -1.3092  -7.4895  10.9004   N.am      1 DJT   -0.2955
     5 C4      -0.0945  -7.4225  10.1086   C.3       1 DJT    0.0783
     6 C5       0.8235  -6.3263  10.5381   C.2       1 DJT    0.0437
     7 O6      -0.4948  -9.0023  12.4261   O.2       1 DJT   -0.3951
     8 C7       0.4669  -8.7034   9.5356   C.3       1 DJT   -0.0407
     9 C8      -0.2365  -7.7077   8.6268   C.3       1 DJT   -0.0407
    10 N9       1.8599  -5.9702   9.8885   N.2       1 DJT   -0.2686
    11 N10     -3.5333  -9.2476  12.9130   N.am      1 DJT   -0.2571
    12 C11     -3.7321  -9.5883  14.3367   C.3       1 DJT    0.0587
    13 C12     -3.4735  -8.2326  15.0552   C.3       1 DJT    0.1066
    14 C13     -2.3854  -7.5867  14.1705   C.3       1 DJT    0.0125
    15 S14     -4.8858  -7.1000  15.0627   S.o2      1 DJT    0.0023
    16 C15     -6.1524  -7.9280  16.0077   C.ar      1 DJT    0.1025
    17 C16     -6.0425  -8.1234  17.3736   C.ar      1 DJT    0.0651
    18 C17     -7.0268  -8.7814  18.0817   C.ar      1 DJT   -0.0460
    19 C18     -8.1303  -9.2337  17.4202   C.ar      1 DJT   -0.0612
    20 C19     -8.2695  -9.0408  16.0709   C.ar      1 DJT   -0.0598
    21 C20     -7.2857  -8.3995  15.3592   C.ar      1 DJT   -0.0364
    22 O22     -4.4357  -5.9056  15.7769   O.2       1 DJT   -0.1690
    23 O23     -5.4265  -6.9631  13.7464   O.2       1 DJT   -0.1690
    24 C24     -4.1201  -9.8161  11.8557   C.2       1 DJT    0.1674
    25 O25     -3.9357  -9.3235  10.7373   O.2       1 DJT   -0.3672
    26 C26     -6.4712 -10.7110  12.4341   C.3       1 DJT   -0.0731
    27 C27     -5.0013 -10.9979  12.1178   C.3       1 DJT    0.0372
    28 C28     -6.0716 -11.3087  11.0841   C.3       1 DJT   -0.0731
    29 C29     -2.3983 -13.6733  12.9250   C.ar      1 DJT    0.0038
    30 C30     -3.0195 -14.3075  13.9703   C.ar      1 DJT    0.1675
    31 C31     -4.2563 -13.8893  14.4098   C.ar      1 DJT    0.0038
    32 C32     -4.8768 -12.8212  13.8178   C.ar      1 DJT   -0.0403
    33 C33     -4.2735 -12.1603  12.7672   C.ar      1 DJT   -0.0438
    34 C34     -3.0448 -12.6002  12.3069   C.ar      1 DJT   -0.0403
    35 F35     -2.4282 -15.3729  14.5710   F         1 DJT   -0.1550
    36 H       -3.2733  -7.3240  12.1462   H         1 DJT    0.0804
    37 H       -2.1146  -6.9329  10.6143   H         1 DJT    0.1774
    38 H        0.5931  -5.7988  11.4636   H         1 DJT    0.1090
    39 H        0.4464  -9.7723   9.7484   H         1 DJT    0.0220
    40 H        1.3964  -9.2721   9.5611   H         1 DJT    0.0220
    41 H       -0.0667  -7.2043   7.6751   H         1 DJT    0.0220
    42 H       -1.0127  -7.7023   7.8615   H         1 DJT    0.0220
    43 H        2.1041  -6.4432   9.0185   H         1 DJT    0.2165
    44 H       -3.0694 -10.3831  14.6792   H         1 DJT    0.0544
    45 H       -4.7226  -9.9947  14.5413   H         1 DJT    0.0544
    46 H       -3.2280  -8.4080  16.1026   H         1 DJT    0.0563
    47 H       -2.3837  -6.5002  14.2577   H         1 DJT    0.0332
    48 H       -1.3833  -7.8919  14.4721   H         1 DJT    0.0332
    49 H       -6.9239  -8.9377  19.1554   H         1 DJT    0.0624
    50 H       -8.9118  -9.7557  17.9723   H         1 DJT    0.0618
    51 H       -9.1641  -9.3976  15.5607   H         1 DJT    0.0620
    52 H       -7.3947  -8.2606  14.2836   H         1 DJT    0.0636
    53 H       -7.0838  -9.8977  12.8229   H         1 DJT    0.0152
    54 H       -7.1902 -10.8943  13.2327   H         1 DJT    0.0152
    55 H       -6.2592 -11.1295  10.0254   H         1 DJT    0.0152
    56 H       -6.3666 -12.1366  10.4395   H         1 DJT    0.0152
    57 H       -1.4169 -14.0010  12.5823   H         1 DJT    0.0695
    58 H       -4.7438 -14.4112  15.2333   H         1 DJT    0.0695
    59 H       -5.8515 -12.4918  14.1781   H         1 DJT    0.0839
    60 H       -2.5777 -12.1054  11.4554   H         1 DJT    0.0839
@<TRIPOS>BOND
     1     1     2    1
     2    11     1    1
     3     1    14    1
     4     2     4   am
     5     2     7    2
     6    17     3    1
     7     4     5    1
     8     5     6    1
     9     5     8    1
    10     5     9    1
    11     6    10    2
    12     9     8    1
    13    11    12    1
    14    24    11   am
    15    12    13    1
    16    13    14    1
    17    13    15    1
    18    15    16    1
    19    15    22    2
    20    15    23    2
    21    16    17   ar
    22    16    21   ar
    23    17    18   ar
    24    18    19   ar
    25    20    19   ar
    26    21    20   ar
    27    24    25    2
    28    27    24    1
    29    27    26    1
    30    28    26    1
    31    27    28    1
    32    33    27    1
    33    30    29   ar
    34    29    34   ar
    35    31    30   ar
    36    30    35    1
    37    32    31   ar
    38    32    33   ar
    39    33    34   ar
    40     1    36    1
    41     4    37    1
    42     6    38    1
    43     8    39    1
    44     8    40    1
    45     9    41    1
    46     9    42    1
    47    10    43    1
    48    12    44    1
    49    12    45    1
    50    13    46    1
    51    14    47    1
    52    14    48    1
    53    18    49    1
    54    19    50    1
    55    20    51    1
    56    21    52    1
    57    26    53    1
    58    26    54    1
    59    28    55    1
    60    28    56    1
    61    29    57    1
    62    31    58    1
    63    32    59    1
    64    34    60    1
@<TRIPOS>SUBSTRUCTURE
     1 DJT         1 GROUP             0 ****  ****    0  
@<TRIPOS>MOLECULE
2xu3_ligand
    57    61     1     0     0
SMALL
USER_CHARGES
****
Generated from the CSD

@<TRIPOS>ATOM
     1 N1      -3.2713  -9.3928  12.9369   N.am      1 XU3   -0.2632
     2 C2      -3.7281  -9.5838  14.3137   C.3       1 XU3    0.0580
     3 CL2     -4.6838  -7.3763  17.9598   Cl        1 XU3   -0.0687
     4 C3      -3.5479  -8.1926  14.9283   C.3       1 XU3    0.1066
     5 CL3     -1.1133 -14.7469  15.3634   Cl        1 XU3    0.0134
     6 C4      -2.4139  -7.5258  14.1094   C.3       1 XU3    0.0124
     7 C5      -2.6202  -8.1066  12.7207   C.3       1 XU3    0.1335
     8 S6      -5.0272  -7.2129  14.6773   S.o2      1 XU3    0.0023
     9 C7      -1.3102  -8.1677  11.9602   C.2       1 XU3    0.1970
    10 C8      -6.2167  -7.9561  15.7746   C.ar      1 XU3    0.1025
    11 O9      -4.6916  -5.9186  15.2023   O.2       1 XU3   -0.1690
    12 O10     -5.4782  -7.3273  13.3398   O.2       1 XU3   -0.1690
    13 C11     -6.0518  -7.9984  17.1598   C.ar      1 XU3    0.0651
    14 C12     -6.9983  -8.5554  17.9764   C.ar      1 XU3   -0.0460
    15 C13     -8.1471  -9.0774  17.4206   C.ar      1 XU3   -0.0612
    16 C14     -8.3330  -9.0472  16.0546   C.ar      1 XU3   -0.0598
    17 C15     -7.3731  -8.4814  15.2345   C.ar      1 XU3   -0.0364
    18 O16     -0.3509  -8.8364  12.3566   O.2       1 XU3   -0.3951
    19 N17     -1.2413  -7.3428  10.8867   N.am      1 XU3   -0.2955
    20 C18     -0.0767  -7.1400  10.0640   C.3       1 XU3    0.0783
    21 C19      0.8776  -6.0846  10.5199   C.2       1 XU3    0.0437
    22 N20      1.8682  -5.6951   9.9247   N.2       1 XU3   -0.2686
    23 C21      0.4953  -8.3800   9.3790   C.3       1 XU3   -0.0407
    24 C22     -0.2693  -7.3368   8.5810   C.3       1 XU3   -0.0407
    25 C24     -3.5160 -10.2158  11.9121   C.2       1 XU3    0.1361
    26 C25     -4.3258 -11.4355  12.2270   C.3       1 XU3    0.0149
    27 O26     -3.1398  -9.9458  10.7787   O.2       1 XU3   -0.3844
    28 C27     -3.8326 -12.3622  13.2902   C.2       1 XU3    0.0076
    29 C28     -4.4698 -12.9096  14.3377   C.2       1 XU3   -0.0219
    30 C29     -3.6732 -13.7512  15.1110   C.2       1 XU3    0.0150
    31 C30     -2.4063 -13.8387  14.6852   C.2       1 XU3    0.1653
    32 S31     -2.1872 -12.8494  13.2674   S.3       1 XU3    0.0159
    33 C33     -5.8321 -11.2627  12.0990   C.3       1 XU3   -0.0985
    34 C34     -5.0654 -12.0448  11.0383   C.3       1 XU3   -0.0985
    35 H       -3.1694 -10.3562  14.8423   H         1 XU3    0.0544
    36 H       -4.7551  -9.9439  14.3735   H         1 XU3    0.0544
    37 H       -3.3372  -8.2611  15.9955   H         1 XU3    0.0563
    38 H       -1.4218  -7.7289  14.5127   H         1 XU3    0.0332
    39 H       -2.4602  -6.4369  14.1265   H         1 XU3    0.0332
    40 H       -3.2515  -7.4899  12.0809   H         1 XU3    0.0803
    41 H       -6.8454  -8.5860  19.0552   H         1 XU3    0.0624
    42 H       -8.9108  -9.5156  18.0632   H         1 XU3    0.0618
    43 H       -9.2386  -9.4701  15.6198   H         1 XU3    0.0620
    44 H       -7.5309  -8.4504  14.1564   H         1 XU3    0.0636
    45 H       -2.0838  -6.8227  10.6415   H         1 XU3    0.1774
    46 H        0.6673  -5.6157  11.4811   H         1 XU3    0.1090
    47 H        2.1120  -6.0997   9.0207   H         1 XU3    0.2165
    48 H        0.5133  -9.4612   9.5157   H         1 XU3    0.0220
    49 H        1.4339  -8.9316   9.3259   H         1 XU3    0.0220
    50 H       -0.1438  -6.7639   7.6623   H         1 XU3    0.0220
    51 H       -1.0824  -7.3036   7.8558   H         1 XU3    0.0220
    52 H       -5.5179 -12.7128  14.5632   H         1 XU3    0.0980
    53 H       -4.0466 -14.2891  15.9824   H         1 XU3    0.0677
    54 H       -6.5688 -10.4609  12.1485   H         1 XU3    0.0079
    55 H       -6.7227 -11.3818  12.7162   H         1 XU3    0.0079
    56 H       -5.1319 -12.9998  10.5172   H         1 XU3    0.0079
    57 H       -4.9789 -12.0837   9.9524   H         1 XU3    0.0079
@<TRIPOS>BOND
     1     1     2    1
     2     1     7    1
     3    25     1   am
     4     2     4    1
     5    13     3    1
     6     6     4    1
     7     4     8    1
     8    31     5    1
     9     7     6    1
    10     7     9    1
    11     8    10    1
    12     8    11    2
    13     8    12    2
    14     9    18    2
    15     9    19   am
    16    10    13   ar
    17    10    17   ar
    18    13    14   ar
    19    14    15   ar
    20    16    15   ar
    21    17    16   ar
    22    19    20    1
    23    20    21    1
    24    20    23    1
    25    20    24    1
    26    21    22    2
    27    24    23    1
    28    26    25    1
    29    25    27    2
    30    28    26    1
    31    26    33    1
    32    26    34    1
    33    29    28    2
    34    28    32    1
    35    30    29    1
    36    30    31    2
    37    31    32    1
    38    33    34    1
    39     2    35    1
    40     2    36    1
    41     4    37    1
    42     6    38    1
    43     6    39    1
    44     7    40    1
    45    14    41    1
    46    15    42    1
    47    16    43    1
    48    17    44    1
    49    19    45    1
    50    21    46    1
    51    22    47    1
    52    23    48    1
    53    23    49    1
    54    24    50    1
    55    24    51    1
    56    29    52    1
    57    30    53    1
    58    33    54    1
    59    33    55    1
    60    34    56    1
    61    34    57    1
@<TRIPOS>SUBSTRUCTURE
     1 XU3         1 GROUP             0 ****  ****    0  
@<TRIPOS>MOLECULE
3bc3_ligand
   116   120     1     0     0
SMALL
USER_CHARGES
****
Generated from the CSD

@<TRIPOS>ATOM
     1 C1       2.4633  -4.1175   6.2177   C.3       1 OPT    0.0675
     2 C2       1.4203  -4.2576   7.2219   C.2       1 OPT    0.1887
     3 C7       2.7474  -2.8594   5.4439   C.ar      1 OPT   -0.0308
     4 C8       1.7857  -2.5411   4.3610   C.ar      1 OPT   -0.0642
     5 C9       1.9709  -1.3400   3.5754   C.ar      1 OPT   -0.0645
     6 C10      3.4853   3.3050   1.2465   C.3       1 OPT   -0.0356
     7 C11      3.3174   2.2016   3.6533   C.2       1 OPT   -0.0854
     8 C12      3.2516   0.8271   2.9803   C.3       1 OPT    0.0057
     9 C13      3.4316   3.3966   2.7841   C.2       1 OPT   -0.0961
    10 C14      3.3066   0.7046   1.4461   C.3       1 OPT   -0.0333
    11 C15      3.4229   1.9432   0.5979   C.3       1 OPT   -0.0428
    12 C20     -1.7955  -5.3855   7.2952   C.3       1 OPT    0.0361
    13 C22     -3.1447  -3.3295   5.7640   C.3       1 OPT    0.0276
    14 C24     -2.2269  -3.5282   3.3580   C.ar      1 OPT   -0.0595
    15 C27     -4.2383  -5.4579   2.6299   C.ar      1 OPT   -0.0685
    16 N29     -0.9022  -7.5845   9.7202   N.am      1 OPT   -0.2583
    17 C30     -0.8663  -8.8741  10.2732   C.3       1 OPT    0.1600
    18 C31     -1.7783  -9.9482   9.4730   C.3       1 OPT    0.0787
    19 C32     -3.2075  -9.5376   8.9139   C.2       1 OPT    0.0845
    20 C33     -4.1504 -10.6412   9.1815   C.2       1 OPT    0.1620
    21 C35     -6.7049 -10.2969   9.3638   C.cat     1 OPT    0.1708
    22 O3       1.2934  -3.3595   8.0857   O.2       1 OPT   -0.3942
    23 C4       3.1288  -0.3899   3.8294   C.ar      1 OPT   -0.0387
    24 C5       4.1308  -0.7115   4.9473   C.ar      1 OPT   -0.0645
    25 C6       3.9422  -1.9372   5.7513   C.ar      1 OPT   -0.0642
    26 N16      0.5612  -5.5411   7.0936   N.am      1 OPT   -0.2633
    27 C17     -0.5144  -5.7719   8.0596   C.3       1 OPT    0.1401
    28 C18     -0.3221  -7.2193   8.3534   C.2       1 OPT    0.2051
    29 O19      0.2445  -8.0754   7.6040   O.2       1 OPT   -0.3943
    30 SG2     -1.9769  -3.6498   7.0168   S.3       1 OPT   -0.1422
    31 C23     -3.1844  -3.9255   4.3245   C.ar      1 OPT   -0.0332
    32 C25     -4.2050  -4.9094   3.9478   C.ar      1 OPT   -0.0595
    33 C26     -2.2563  -4.0770   2.0335   C.ar      1 OPT   -0.0685
    34 C28     -3.2562  -5.0374   1.6661   C.ar      1 OPT   -0.0687
    35 N34     -5.4804 -10.6423   8.8005   N.pl3     1 OPT   -0.2291
    36 N36     -6.9675 -10.1945  10.6989   N.pl3     1 OPT   -0.3481
    37 N37     -7.7868 -10.0327   8.5793   N.pl3     1 OPT   -0.3481
    38 C38     -1.4566  -9.0259  11.5927   C.2       1 OPT    0.2104
    39 O39     -1.0392 -10.0061  12.2586   O.2       1 OPT   -0.3938
    40 N40     -2.3693  -8.1650  11.9663   N.am      1 OPT   -0.2617
    41 C41     -2.9454  -8.3475  13.2028   C.3       1 OPT    0.1389
    42 C42     -4.0960  -9.4062  13.0413   C.2       1 OPT    0.2036
    43 O43     -4.9574  -9.2004  12.1516   O.2       1 OPT   -0.3944
    44 C44     -3.5753  -6.9978  13.7955   C.3       1 OPT    0.0163
    45 C45     -4.2579  -7.2494  15.1765   C.ar      1 OPT   -0.0493
    46 C46     -3.4793  -7.1264  16.4232   C.ar      1 OPT   -0.0685
    47 C47     -5.7142  -7.6276  15.2440   C.ar      1 OPT   -0.0685
    48 C48     -4.1252  -7.3729  17.6979   C.ar      1 OPT   -0.0398
    49 C49     -6.3410  -7.8707  16.5158   C.ar      1 OPT   -0.0398
    50 C50     -5.5514  -7.7455  17.7352   C.ar      1 OPT    0.0805
    51 O51     -6.1495  -7.9792  18.9114   O.3       1 OPT   -0.3376
    52 C52     -3.2611 -13.5010  13.7809   C.ar      1 OPT   -0.0411
    53 C53     -3.2130 -14.0037  15.2264   C.ar      1 OPT   -0.0603
    54 C54     -2.0403 -14.7807  15.6704   C.ar      1 OPT   -0.0686
    55 C55     -0.9346 -15.0589  14.7166   C.ar      1 OPT   -0.0687
    56 C56     -0.9885 -14.5690  13.3224   C.ar      1 OPT   -0.0686
    57 C57     -2.1431 -13.7926  12.8443   C.ar      1 OPT   -0.0603
    58 C58     -4.4294 -12.7101  13.2873   C.3       1 OPT    0.0011
    59 C59     -5.0653 -11.5926  14.0244   C.3       1 OPT    0.0405
    60 N60     -3.9546 -10.4958  14.0541   N.am      1 OPT   -0.2830
    61 H1       2.2479  -4.8859   5.4607   H         1 OPT    0.0647
    62 H2       3.4031  -4.3640   6.7333   H         1 OPT    0.0647
    63 H3       0.9508  -3.2025   4.1596   H         1 OPT    0.0544
    64 H4       1.2650  -1.1122   2.7849   H         1 OPT    0.0543
    65 H5       4.4284   3.7725   0.9272   H         1 OPT    0.0391
    66 H6       2.6372   3.8876   0.8578   H         1 OPT    0.0391
    67 H7       3.2813   2.2978   4.7374   H         1 OPT    0.0468
    68 H8       4.3480   0.7505   3.0234   H         1 OPT    0.0570
    69 H9       3.4794   4.3794   3.2508   H         1 OPT    0.0460
    70 H10      2.3849   0.1914   1.1348   H         1 OPT    0.0309
    71 H11      4.1757   0.0736   1.2085   H         1 OPT    0.0309
    72 H12      4.3413   1.8338   0.0025   H         1 OPT    0.0288
    73 H13      2.5504   1.9513  -0.0718   H         1 OPT    0.0288
    74 H14     -2.6623  -5.7341   7.8758   H         1 OPT    0.0426
    75 H15     -1.7807  -5.8917   6.3187   H         1 OPT    0.0426
    76 H16     -3.1043  -2.2403   5.6152   H         1 OPT    0.0538
    77 H17     -4.1134  -3.6033   6.2074   H         1 OPT    0.0538
    78 H18     -1.4658  -2.8030   3.6224   H         1 OPT    0.0557
    79 H19     -4.9960  -6.1841   2.3582   H         1 OPT    0.0599
    80 H20     -1.3348  -6.8582  10.2543   H         1 OPT    0.1888
    81 H21      0.1862  -9.1935  10.2902   H         1 OPT    0.0873
    82 H22     -1.9391 -10.7954  10.1559   H         1 OPT    0.0808
    83 H23     -1.1860 -10.2817   8.6081   H         1 OPT    0.0808
    84 H24     -3.4507  -8.5997   8.4168   H         1 OPT    0.1626
    85 H25     -3.7739 -11.5131   9.7145   H         1 OPT    0.1896
    86 H26      4.9655  -0.0485   5.1442   H         1 OPT    0.0543
    87 H27      4.6357  -2.1839   6.5471   H         1 OPT    0.0544
    88 H28      0.7385  -6.2006   6.3631   H         1 OPT    0.1884
    89 H29     -0.4204  -5.1698   8.9753   H         1 OPT    0.0808
    90 H30     -4.9422  -5.2234   4.6779   H         1 OPT    0.0557
    91 H31     -1.5175  -3.7638   1.3047   H         1 OPT    0.0599
    92 H32     -3.2720  -5.4465   0.6624   H         1 OPT    0.0559
    93 H33     -5.5953 -10.9943   7.8394   H         1 OPT    0.2519
    94 H34     -7.9102  -9.9313  11.0196   H         1 OPT    0.1671
    95 H35     -6.2230 -10.3804  11.3859   H         1 OPT    0.1671
    96 H36     -7.7033 -10.0803   7.5538   H         1 OPT    0.1671
    97 H37     -8.6884  -9.7851   9.0116   H         1 OPT    0.1671
    98 H38     -2.6376  -7.4039  11.3759   H         1 OPT    0.1885
    99 H39     -2.1847  -8.7238  13.9025   H         1 OPT    0.0821
   100 H40     -4.3259  -6.6125  13.0897   H         1 OPT    0.0453
   101 H41     -2.7747  -6.2540  13.9217   H         1 OPT    0.0453
   102 H42     -2.4308  -6.8535  16.3867   H         1 OPT    0.0530
   103 H43     -6.2919  -7.7168  14.3311   H         1 OPT    0.0530
   104 H44     -3.5618  -7.2835  18.6196   H         1 OPT    0.0525
   105 H45     -7.3887  -8.1440  16.5670   H         1 OPT    0.0525
   106 H46     -6.4797  -8.8698  18.9260   H         1 OPT    0.2458
   107 H47     -4.0263 -13.7924  15.9112   H         1 OPT    0.0557
   108 H48     -1.9850 -15.1476  16.6890   H         1 OPT    0.0599
   109 H49     -0.0751 -15.6301  15.0484   H         1 OPT    0.0559
   110 H50     -0.1692 -14.7840  12.6459   H         1 OPT    0.0599
   111 H51     -2.1786 -13.4371  11.8209   H         1 OPT    0.0557
   112 H52     -5.2308 -13.4441  13.1166   H         1 OPT    0.0446
   113 H53     -4.1110 -12.2843  12.3244   H         1 OPT    0.0446
   114 H54     -5.3410 -11.9005  15.0439   H         1 OPT    0.0542
   115 H55     -5.9599 -11.2318  13.4959   H         1 OPT    0.0542
   116 H56     -3.1982 -10.5209  14.7078   H         1 OPT    0.1853
@<TRIPOS>BOND
     1     2     1    1
     2     1     3    1
     3     2    22    2
     4    26     2   am
     5     3     4   ar
     6     3    25   ar
     7     4     5   ar
     8     5    23   ar
     9     9     6    1
    10    11     6    1
    11     8     7    1
    12     7     9    2
    13     8    10    1
    14    23     8    1
    15    10    11    1
    16    27    12    1
    17    12    30    1
    18    30    13    1
    19    13    31    1
    20    31    14   ar
    21    14    33   ar
    22    32    15   ar
    23    15    34   ar
    24    17    16    1
    25    16    28   am
    26    17    18    1
    27    38    17    1
    28    18    19    1
    29    19    20    2
    30    20    35    1
    31    35    21   ar
    32    21    36   ar
    33    21    37   ar
    34    24    23   ar
    35    25    24   ar
    36    27    26    1
    37    28    27    1
    38    28    29    2
    39    31    32   ar
    40    33    34   ar
    41    38    39    2
    42    40    38   am
    43    41    40    1
    44    42    41    1
    45    41    44    1
    46    42    43    2
    47    60    42   am
    48    44    45    1
    49    45    46   ar
    50    45    47   ar
    51    46    48   ar
    52    47    49   ar
    53    48    50   ar
    54    49    50   ar
    55    50    51    1
    56    52    53   ar
    57    52    57   ar
    58    58    52    1
    59    53    54   ar
    60    54    55   ar
    61    56    55   ar
    62    57    56   ar
    63    59    58    1
    64    59    60    1
    65     1    61    1
    66     1    62    1
    67     4    63    1
    68     5    64    1
    69     6    65    1
    70     6    66    1
    71     7    67    1
    72     8    68    1
    73     9    69    1
    74    10    70    1
    75    10    71    1
    76    11    72    1
    77    11    73    1
    78    12    74    1
    79    12    75    1
    80    13    76    1
    81    13    77    1
    82    14    78    1
    83    15    79    1
    84    16    80    1
    85    17    81    1
    86    18    82    1
    87    18    83    1
    88    19    84    1
    89    20    85    1
    90    24    86    1
    91    25    87    1
    92    26    88    1
    93    27    89    1
    94    32    90    1
    95    33    91    1
    96    34    92    1
    97    35    93    1
    98    36    94    1
    99    36    95    1
   100    37    96    1
   101    37    97    1
   102    40    98    1
   103    41    99    1
   104    44   100    1
   105    44   101    1
   106    46   102    1
   107    47   103    1
   108    48   104    1
   109    49   105    1
   110    51   106    1
   111    53   107    1
   112    54   108    1
   113    55   109    1
   114    56   110    1
   115    57   111    1
   116    58   112    1
   117    58   113    1
   118    59   114    1
   119    59   115    1
   120    60   116    1
@<TRIPOS>SUBSTRUCTURE
     1 OPT         1 GROUP             0 ****  ****    0  
@<TRIPOS>MOLECULE
5mae_ligand
    51    54     1     0     0
SMALL
USER_CHARGES
****
Generated from the CSD

@<TRIPOS>ATOM
     1 C16     -4.8558  -7.5705  13.7669   C.3       1 7KN   -0.0288
     2 C12     -6.6738 -11.6359  11.9554   C.ar      1 7KN    0.0334
     3 C11     -6.9742 -11.1644  10.6550   C.ar      1 7KN    0.0344
     4 C15     -3.5260  -9.9766  12.8733   C.3       1 7KN    0.0915
     5 C14     -4.6678 -10.3088  12.0637   C.ar      1 7KN    0.0819
     6 C9      -5.0028  -9.8762  10.7469   C.ar      1 7KN    0.0454
     7 C1      -1.6445 -10.9818   8.0631   C.3       1 7KN    0.0592
     8 C2      -0.7872 -12.2118   8.2500   C.3       1 7KN    0.0687
     9 C4       1.1682 -11.0264   7.5970   C.3       1 7KN    0.0687
    10 C5       0.4240  -9.6690   7.5214   C.3       1 7KN    0.0592
    11 O3       0.2345 -12.0788   7.2643   O.3       1 7KN   -0.3756
    12 N6      -0.6738  -9.9234   8.4718   N.pl3     1 7KN   -0.2673
    13 N7       1.6006  -5.8316  10.1337   N.2       1 7KN   -0.3220
    14 C8       0.5688  -6.0726  10.9122   C.2       1 7KN    0.0629
    15 N10     -6.1799 -10.2135  10.0987   N.ar      1 7KN   -0.2791
    16 N13     -5.5497 -11.1870  12.6645   N.ar      1 7KN   -0.2708
    17 C17     -4.9501  -7.5151  15.2718   C.3       1 7KN   -0.0508
    18 C18     -3.5765  -6.9540  15.7098   C.3       1 7KN   -0.0508
    19 C19     -2.5809  -7.5340  14.6465   C.3       1 7KN   -0.0288
    20 C20     -3.4211  -7.4963  13.2687   C.3       1 7KN    0.0495
    21 N21     -3.0570  -8.6228  12.3794   N.pl3     1 7KN   -0.2537
    22 N22     -1.8548  -9.3246  10.3961   N.ar      1 7KN   -0.2116
    23 C23     -2.0858  -8.4261  11.4097   C.ar      1 7KN    0.1973
    24 N24     -1.3119  -7.3494  11.5571   N.ar      1 7KN   -0.2283
    25 C25     -0.3029  -7.1768  10.6921   C.ar      1 7KN    0.1398
    26 N26     -0.0330  -8.0657   9.7242   N.ar      1 7KN   -0.2285
    27 C27     -0.8712  -9.0922   9.5466   C.ar      1 7KN    0.1949
    28 H1      -5.4188  -6.7240  13.3470   H         1 7KN    0.0288
    29 H2      -5.3008  -8.5149  13.4203   H         1 7KN    0.0288
    30 H3      -7.3308 -12.3645  12.4164   H         1 7KN    0.0904
    31 H4      -7.8260 -11.5564  10.1111   H         1 7KN    0.0863
    32 H5      -2.7328 -10.7279  12.7454   H         1 7KN    0.0742
    33 H6      -3.8107  -9.9208  13.9343   H         1 7KN    0.0742
    34 H7      -4.2943  -9.2458  10.2217   H         1 7KN    0.0870
    35 H8      -2.5294 -10.9981   8.7163   H         1 7KN    0.0554
    36 H9      -1.9631 -10.8614   7.0172   H         1 7KN    0.0554
    37 H10     -1.3749 -13.1264   8.0818   H         1 7KN    0.0581
    38 H11     -0.3536 -12.2354   9.2607   H         1 7KN    0.0581
    39 H12      1.5553 -11.1815   8.6149   H         1 7KN    0.0581
    40 H13      2.0041 -11.0319   6.8821   H         1 7KN    0.0581
    41 H14      0.0474  -9.4663   6.5080   H         1 7KN    0.0554
    42 H15      1.0622  -8.8351   7.8490   H         1 7KN    0.0554
    43 H16      2.1975  -5.0406  10.3184   H         1 7KN    0.1465
    44 H17      0.3748  -5.4068  11.7518   H         1 7KN    0.1182
    45 H18     -5.1146  -8.5187  15.6910   H         1 7KN    0.0266
    46 H19     -5.7647  -6.8473  15.5886   H         1 7KN    0.0266
    47 H20     -3.3159  -7.3003  16.7209   H         1 7KN    0.0266
    48 H21     -3.5771  -5.8542  15.6876   H         1 7KN    0.0266
    49 H22     -2.2925  -8.5646  14.9011   H         1 7KN    0.0288
    50 H23     -1.6790  -6.9086  14.5724   H         1 7KN    0.0288
    51 H24     -3.2482  -6.5526  12.7307   H         1 7KN    0.0569
@<TRIPOS>BOND
     1     1    17    1
     2    20     1    1
     3     2     3   ar
     4    16     2   ar
     5    15     3   ar
     6     4     5    1
     7    21     4    1
     8     5     6   ar
     9     5    16   ar
    10     6    15   ar
    11     7     8    1
    12    12     7    1
    13     8    11    1
    14    10     9    1
    15     9    11    1
    16    12    10    1
    17    27    12    1
    18    14    13    2
    19    25    14    1
    20    18    17    1
    21    19    18    1
    22    20    19    1
    23    21    20    1
    24    23    21    1
    25    23    22   ar
    26    22    27   ar
    27    24    23   ar
    28    24    25   ar
    29    25    26   ar
    30    26    27   ar
    31     1    28    1
    32     1    29    1
    33     2    30    1
    34     3    31    1
    35     4    32    1
    36     4    33    1
    37     6    34    1
    38     7    35    1
    39     7    36    1
    40     8    37    1
    41     8    38    1
    42     9    39    1
    43     9    40    1
    44    10    41    1
    45    10    42    1
    46    13    43    1
    47    14    44    1
    48    17    45    1
    49    17    46    1
    50    18    47    1
    51    18    48    1
    52    19    49    1
    53    19    50    1
    54    20    51    1
@<TRIPOS>SUBSTRUCTURE
     1 7KN         1 GROUP             0 ****  ****    0  
@<TRIPOS>MOLECULE
2xu5_ligand
    63    67     1     0     0
SMALL
USER_CHARGES
****
Generated from the CSD

@<TRIPOS>ATOM
     1 CL      -4.7912  -7.5136  18.2210   Cl        1 XU5   -0.0687
     2 C1      -2.7173  -7.8259  12.8841   C.3       1 XU5    0.1341
     3 C2      -1.4104  -7.9798  12.1308   C.2       1 XU5    0.1971
     4 N3      -1.2964  -7.2891  10.9726   N.am      1 XU5   -0.2955
     5 C4      -0.1013  -7.1863  10.1385   C.3       1 XU5    0.0783
     6 C5       0.7596  -6.0585  10.5646   C.2       1 XU5    0.0437
     7 O6      -0.5191  -8.6882  12.5738   O.2       1 XU5   -0.3951
     8 C7       0.5605  -8.4300   9.5263   C.3       1 XU5   -0.0407
     9 C8      -0.2552  -7.4822   8.6450   C.3       1 XU5   -0.0407
    10 N9       1.7003  -5.6546   9.8124   N.2       1 XU5   -0.2686
    11 N10     -3.4380  -9.0945  12.9219   N.am      1 XU5   -0.2575
    12 C11     -3.6616  -9.4990  14.3127   C.3       1 XU5    0.0586
    13 C12     -3.4430  -8.1804  15.1270   C.3       1 XU5    0.1066
    14 C13     -2.2653  -7.5365  14.3344   C.3       1 XU5    0.0125
    15 S14     -4.8322  -7.0194  15.1081   S.o2      1 XU5    0.0023
    16 C15     -6.1213  -7.9342  15.9305   C.ar      1 XU5    0.1025
    17 C16     -6.0830  -8.1613  17.2955   C.ar      1 XU5    0.0651
    18 C17     -7.0549  -8.8860  17.9790   C.ar      1 XU5   -0.0460
    19 C18     -8.1138  -9.3845  17.2559   C.ar      1 XU5   -0.0612
    20 C19     -8.1603  -9.1686  15.8981   C.ar      1 XU5   -0.0598
    21 C20     -7.1814  -8.4564  15.2215   C.ar      1 XU5   -0.0364
    22 O22     -4.4432  -5.8690  15.8896   O.2       1 XU5   -0.1690
    23 O23     -5.3057  -6.8356  13.7808   O.2       1 XU5   -0.1690
    24 C24     -3.8788  -9.7527  11.8339   C.2       1 XU5    0.1651
    25 O25     -3.6631  -9.2545  10.7557   O.2       1 XU5   -0.3685
    26 C26     -6.1329 -11.0334  12.1884   C.3       1 XU5   -0.0751
    27 C27     -4.6197 -11.0597  11.9817   C.3       1 XU5    0.0343
    28 C28     -5.5411 -11.4342  10.8348   C.3       1 XU5   -0.0751
    29 C29     -3.5440 -13.7084  14.5293   C.ar      1 XU5   -0.0282
    30 C30     -2.3167 -14.0870  13.9889   C.ar      1 XU5   -0.0137
    31 C31     -1.8705 -13.4753  12.8319   C.ar      1 XU5   -0.0282
    32 C32     -2.6268 -12.5155  12.1878   C.ar      1 XU5   -0.0445
    33 C33     -3.8427 -12.1339  12.7044   C.ar      1 XU5   -0.0473
    34 C34     -4.3094 -12.7273  13.8898   C.ar      1 XU5   -0.0445
    35 C35     -1.4586 -15.1497  14.6467   C.3       1 XU5   -0.0153
    36 H       -3.3565  -7.0674  12.4322   H         1 XU5    0.0804
    37 H       -2.1264  -6.7914  10.6503   H         1 XU5    0.1774
    38 H        0.5856  -5.5742  11.5256   H         1 XU5    0.1090
    39 H        0.6373  -9.4986   9.7267   H         1 XU5    0.0220
    40 H        1.5345  -8.9191   9.5194   H         1 XU5    0.0220
    41 H       -0.1494  -6.9585   7.6949   H         1 XU5    0.0220
    42 H       -1.0518  -7.5413   7.9033   H         1 XU5    0.0220
    43 H        1.8640  -6.1069   8.9130   H         1 XU5    0.2165
    44 H       -2.9870 -10.2959  14.6259   H         1 XU5    0.0544
    45 H       -4.6546  -9.9213  14.4669   H         1 XU5    0.0544
    46 H       -3.2890  -8.3960  16.1843   H         1 XU5    0.0563
    47 H       -2.1047  -6.4803  14.5509   H         1 XU5    0.0332
    48 H       -1.2839  -7.9384  14.5860   H         1 XU5    0.0332
    49 H       -6.9795  -9.0533  19.0535   H         1 XU5    0.0624
    50 H       -8.9064  -9.9438  17.7529   H         1 XU5    0.0618
    51 H       -8.9993  -9.5731  15.3320   H         1 XU5    0.0620
    52 H       -7.2496  -8.3117  14.1433   H         1 XU5    0.0636
    53 H       -6.8961 -10.3642  12.5854   H         1 XU5    0.0147
    54 H       -6.8708 -11.3984  12.9027   H         1 XU5    0.0147
    55 H       -5.6740 -11.1894   9.7810   H         1 XU5    0.0147
    56 H       -5.6484 -12.2333  10.1013   H         1 XU5    0.0147
    57 H       -3.9059 -14.1744  15.4458   H         1 XU5    0.0655
    58 H       -0.9016 -13.7566  12.4193   H         1 XU5    0.0655
    59 H       -2.2590 -12.0597  11.2685   H         1 XU5    0.0832
    60 H       -5.2676 -12.4232  14.3110   H         1 XU5    0.0832
    61 H       -1.3027 -15.9723  13.9487   H         1 XU5    0.0466
    62 H       -0.4963 -14.7184  14.9226   H         1 XU5    0.0466
    63 H       -1.9619 -15.5197  15.5399   H         1 XU5    0.0466
@<TRIPOS>BOND
     1    17     1    1
     2     2     3    1
     3    11     2    1
     4     2    14    1
     5     3     4   am
     6     3     7    2
     7     4     5    1
     8     5     6    1
     9     5     8    1
    10     5     9    1
    11     6    10    2
    12     9     8    1
    13    11    12    1
    14    24    11   am
    15    12    13    1
    16    13    14    1
    17    13    15    1
    18    15    16    1
    19    15    22    2
    20    15    23    2
    21    16    17   ar
    22    16    21   ar
    23    17    18   ar
    24    18    19   ar
    25    20    19   ar
    26    21    20   ar
    27    24    25    2
    28    27    24    1
    29    27    26    1
    30    28    26    1
    31    27    28    1
    32    33    27    1
    33    30    29   ar
    34    29    34   ar
    35    31    30   ar
    36    30    35    1
    37    32    31   ar
    38    32    33   ar
    39    33    34   ar
    40     2    36    1
    41     4    37    1
    42     6    38    1
    43     8    39    1
    44     8    40    1
    45     9    41    1
    46     9    42    1
    47    10    43    1
    48    12    44    1
    49    12    45    1
    50    13    46    1
    51    14    47    1
    52    14    48    1
    53    18    49    1
    54    19    50    1
    55    20    51    1
    56    21    52    1
    57    26    53    1
    58    26    54    1
    59    28    55    1
    60    28    56    1
    61    29    57    1
    62    31    58    1
    63    32    59    1
    64    34    60    1
    65    35    61    1
    66    35    62    1
    67    35    63    1
@<TRIPOS>SUBSTRUCTURE
     1 XU5         1 GROUP             0 ****  ****    0  
@<TRIPOS>MOLECULE
2yj9_ligand
    63    67     1     0     0
SMALL
USER_CHARGES
****
Generated from the CSD

@<TRIPOS>ATOM
     1 C1      -2.7398  -8.0747  12.8207   C.3       1 YJ9    0.1344
     2 C2      -1.4262  -8.2222  12.0409   C.2       1 YJ9    0.1971
     3 N3      -1.3195  -7.4036  10.9433   N.am      1 YJ9   -0.2955
     4 C4      -0.1763  -7.3210  10.1217   C.3       1 YJ9    0.0783
     5 C5       0.7316  -6.2663  10.5797   C.2       1 YJ9    0.0437
     6 O6      -0.5282  -8.9942  12.4377   O.2       1 YJ9   -0.3951
     7 C7       0.4500  -8.5498   9.4782   C.3       1 YJ9   -0.0407
     8 C8      -0.3020  -7.5724   8.6267   C.3       1 YJ9   -0.0407
     9 N9       1.7997  -5.8304   9.9865   N.2       1 YJ9   -0.2686
    10 N10     -3.4667  -9.3012  13.0120   N.am      1 YJ9   -0.2547
    11 C11     -3.7910  -9.5019  14.4122   C.3       1 YJ9    0.0589
    12 C12     -3.5368  -8.1288  15.0767   C.3       1 YJ9    0.1066
    13 C13     -2.4057  -7.5755  14.2287   C.3       1 YJ9    0.0125
    14 S14     -4.8748  -7.0374  15.0820   S.o2      1 YJ9    0.0023
    15 C15     -6.0768  -7.8711  15.9684   C.ar      1 YJ9    0.1025
    16 C16     -6.0726  -8.1021  17.3508   C.ar      1 YJ9    0.0651
    17 C17     -7.0735  -8.7873  18.0471   C.ar      1 YJ9   -0.0460
    18 C18     -8.1434  -9.3154  17.3506   C.ar      1 YJ9   -0.0612
    19 C19     -8.1999  -9.1279  15.9769   C.ar      1 YJ9   -0.0598
    20 C20     -7.2075  -8.4338  15.3032   C.ar      1 YJ9   -0.0364
    21 CL      -4.8283  -7.5059  18.2996   Cl        1 YJ9   -0.0687
    22 O22     -4.4394  -5.8744  15.7670   O.2       1 YJ9   -0.1690
    23 O23     -5.3327  -6.8990  13.7541   O.2       1 YJ9   -0.1690
    24 C24     -4.0046  -9.9412  11.9285   C.2       1 YJ9    0.1813
    25 O25     -3.8028  -9.4475  10.7887   O.2       1 YJ9   -0.3604
    26 C26     -6.2736 -10.8902  12.4401   C.3       1 YJ9   -0.0616
    27 C27     -4.8176 -11.1797  12.1693   C.3       1 YJ9    0.0572
    28 C28     -5.8632 -11.5433  11.1548   C.3       1 YJ9   -0.0616
    29 C29     -3.6744 -13.6680  14.8303   C.ar      1 YJ9   -0.0106
    30 C30     -2.4557 -14.0754  14.2680   C.ar      1 YJ9    0.0717
    31 C31     -2.0349 -13.5660  13.0520   C.ar      1 YJ9   -0.0106
    32 C32     -2.8236 -12.6326  12.3920   C.ar      1 YJ9   -0.0184
    33 C33     -4.0421 -12.2020  12.9184   C.ar      1 YJ9   -0.0156
    34 C34     -4.4685 -12.7375  14.1510   C.ar      1 YJ9   -0.0184
    35 C35     -1.5806 -15.1010  14.9594   C.3       1 YJ9    0.3941
    36 F36     -0.2994 -15.1059  14.5858   F         1 YJ9   -0.2085
    37 F37     -1.4964 -14.9663  16.2858   F         1 YJ9   -0.2085
    38 F38     -1.9915 -16.3503  14.7298   F         1 YJ9   -0.2085
    39 H       -3.3574  -7.3986  12.2295   H         1 YJ9    0.0804
    40 H       -2.1197  -6.8169  10.7068   H         1 YJ9    0.1774
    41 H        0.4803  -5.7930  11.5289   H         1 YJ9    0.1090
    42 H        0.4844  -9.6265   9.6438   H         1 YJ9    0.0220
    43 H        1.4111  -9.0639   9.4712   H         1 YJ9    0.0220
    44 H       -0.1569  -7.0256   7.6950   H         1 YJ9    0.0220
    45 H       -1.0842  -7.5886   7.8677   H         1 YJ9    0.0220
    46 H        2.0881  -6.2330   9.0948   H         1 YJ9    0.2165
    47 H       -3.1842 -10.2885  14.8607   H         1 YJ9    0.0544
    48 H       -4.8205  -9.8337  14.5471   H         1 YJ9    0.0544
    49 H       -3.3271  -8.2462  16.1399   H         1 YJ9    0.0563
    50 H       -2.3359  -6.4890  14.2818   H         1 YJ9    0.0332
    51 H       -1.4255  -7.9092  14.5693   H         1 YJ9    0.0332
    52 H       -7.0100  -8.9036  19.1290   H         1 YJ9    0.0624
    53 H       -8.9269  -9.8679  17.8693   H         1 YJ9    0.0618
    54 H       -9.0416  -9.5347  15.4164   H         1 YJ9    0.0620
    55 H       -7.2937  -8.3129  14.2234   H         1 YJ9    0.0636
    56 H       -6.8944 -10.0587  12.7739   H         1 YJ9    0.0180
    57 H       -7.0029 -11.0376  13.2366   H         1 YJ9    0.0180
    58 H       -6.0389 -11.4196  10.0862   H         1 YJ9    0.0180
    59 H       -6.1483 -12.4058  10.5524   H         1 YJ9    0.0180
    60 H       -4.0001 -14.0729  15.7884   H         1 YJ9    0.0897
    61 H       -1.0918 -13.8949  12.6155   H         1 YJ9    0.0897
    62 H       -2.4825 -12.2266  11.4397   H         1 YJ9    0.0891
    63 H       -5.4218 -12.4248  14.5771   H         1 YJ9    0.0891
@<TRIPOS>BOND
     1     1     2    1
     2    10     1    1
     3     1    13    1
     4     2     3   am
     5     2     6    2
     6     3     4    1
     7     4     5    1
     8     4     7    1
     9     4     8    1
    10     5     9    2
    11     8     7    1
    12    10    11    1
    13    24    10   am
    14    11    12    1
    15    12    13    1
    16    12    14    1
    17    14    15    1
    18    14    22    2
    19    14    23    2
    20    15    16   ar
    21    15    20   ar
    22    16    17   ar
    23    16    21    1
    24    17    18   ar
    25    19    18   ar
    26    20    19   ar
    27    24    25    2
    28    27    24    1
    29    27    26    1
    30    28    26    1
    31    27    28    1
    32    33    27    1
    33    30    29   ar
    34    29    34   ar
    35    31    30   ar
    36    30    35    1
    37    32    31   ar
    38    32    33   ar
    39    33    34   ar
    40    35    36    1
    41    35    37    1
    42    35    38    1
    43     1    39    1
    44     3    40    1
    45     5    41    1
    46     7    42    1
    47     7    43    1
    48     8    44    1
    49     8    45    1
    50     9    46    1
    51    11    47    1
    52    11    48    1
    53    12    49    1
    54    13    50    1
    55    13    51    1
    56    17    52    1
    57    18    53    1
    58    19    54    1
    59    20    55    1
    60    26    56    1
    61    26    57    1
    62    28    58    1
    63    28    59    1
    64    29    60    1
    65    31    61    1
    66    32    62    1
    67    34    63    1
@<TRIPOS>SUBSTRUCTURE
     1 YJ9         1 GROUP             0 ****  ****    0  
@<TRIPOS>MOLECULE
2yjb_ligand
    63    67     1     0     0
SMALL
USER_CHARGES
****
Generated from the CSD

@<TRIPOS>ATOM
     1 C1      -2.6332  -7.9594  12.8633   C.3       1 YJ9    0.1344
     2 C2      -1.3094  -8.1419  12.0869   C.2       1 YJ9    0.1971
     3 N3      -1.1777  -7.3216  10.9916   N.am      1 YJ9   -0.2955
     4 C4      -0.0560  -7.1961  10.1256   C.3       1 YJ9    0.0783
     5 C5       0.8091  -6.0812  10.5249   C.2       1 YJ9    0.0437
     6 O6      -0.4560  -8.9504  12.4927   O.2       1 YJ9   -0.3951
     7 C7       0.5741  -8.4289   9.4940   C.3       1 YJ9   -0.0407
     8 C8      -0.2229  -7.4924   8.6424   C.3       1 YJ9   -0.0407
     9 N9       1.8479  -5.6657   9.8427   N.2       1 YJ9   -0.2686
    10 N10     -3.4045  -9.1692  13.0582   N.am      1 YJ9   -0.2547
    11 C11     -3.7368  -9.3468  14.4522   C.3       1 YJ9    0.0589
    12 C12     -3.4579  -8.0201  15.1312   C.3       1 YJ9    0.1066
    13 C13     -2.3199  -7.4659  14.2918   C.3       1 YJ9    0.0125
    14 S14     -4.8317  -6.9655  15.1365   S.o2      1 YJ9    0.0023
    15 C15     -5.9616  -7.7782  16.1195   C.ar      1 YJ9    0.1025
    16 C16     -5.8912  -7.9717  17.4938   C.ar      1 YJ9    0.0651
    17 C17     -6.8410  -8.6432  18.2470   C.ar      1 YJ9   -0.0460
    18 C18     -7.9598  -9.1255  17.5834   C.ar      1 YJ9   -0.0612
    19 C19     -8.0830  -8.9321  16.2178   C.ar      1 YJ9   -0.0598
    20 C20     -7.1042  -8.2742  15.5021   C.ar      1 YJ9   -0.0364
    21 CL      -4.5595  -7.4226  18.3586   Cl        1 YJ9   -0.0687
    22 O22     -4.4170  -5.7976  15.8263   O.2       1 YJ9   -0.1690
    23 O23     -5.3233  -6.8228  13.8318   O.2       1 YJ9   -0.1690
    24 C24     -3.9782  -9.8335  12.0062   C.2       1 YJ9    0.1813
    25 O25     -3.8135  -9.4120  10.8504   O.2       1 YJ9   -0.3604
    26 C26     -6.2515 -10.8140  12.6177   C.3       1 YJ9   -0.0616
    27 C27     -4.8034 -11.0594  12.2813   C.3       1 YJ9    0.0572
    28 C28     -5.8744 -11.3952  11.2845   C.3       1 YJ9   -0.0616
    29 C29     -3.7590 -13.7233  14.8164   C.ar      1 YJ9   -0.0106
    30 C30     -2.4546 -13.9509  14.3864   C.ar      1 YJ9    0.0717
    31 C31     -1.9476 -13.2622  13.3003   C.ar      1 YJ9   -0.0106
    32 C32     -2.7221 -12.3204  12.6301   C.ar      1 YJ9   -0.0184
    33 C33     -4.0382 -12.0820  13.0211   C.ar      1 YJ9   -0.0156
    34 C34     -4.5451 -12.7728  14.1387   C.ar      1 YJ9   -0.0184
    35 C35     -1.5314 -14.9432  15.0764   C.3       1 YJ9    0.3941
    36 F36     -0.2753 -15.0147  14.5716   F         1 YJ9   -0.2085
    37 F37     -1.3157 -14.6949  16.3702   F         1 YJ9   -0.2085
    38 F38     -1.9659 -16.1992  15.0544   F         1 YJ9   -0.2085
    39 H       -3.2101  -7.2651  12.2523   H         1 YJ9    0.0804
    40 H       -1.9809  -6.7319  10.7736   H         1 YJ9    0.1774
    41 H        0.5716  -5.5623  11.4536   H         1 YJ9    0.1090
    42 H        0.6351  -9.4999   9.6869   H         1 YJ9    0.0220
    43 H        1.5451  -8.9233   9.4693   H         1 YJ9    0.0220
    44 H       -0.1180  -6.9690   7.6921   H         1 YJ9    0.0220
    45 H       -1.0281  -7.5457   7.9097   H         1 YJ9    0.0220
    46 H        2.1015  -6.1264   8.9686   H         1 YJ9    0.2165
    47 H       -3.1438 -10.1460  14.8969   H         1 YJ9    0.0544
    48 H       -4.7812  -9.6354  14.5716   H         1 YJ9    0.0544
    49 H       -3.2163  -8.1249  16.1888   H         1 YJ9    0.0563
    50 H       -2.2566  -6.3792  14.3483   H         1 YJ9    0.0332
    51 H       -1.3454  -7.8063  14.6416   H         1 YJ9    0.0332
    52 H       -6.7140  -8.7869  19.3200   H         1 YJ9    0.0624
    53 H       -8.7380  -9.6539  18.1341   H         1 YJ9    0.0618
    54 H       -8.9668  -9.3054  15.7005   H         1 YJ9    0.0620
    55 H       -7.2297  -8.1402  14.4277   H         1 YJ9    0.0636
    56 H       -6.8755 -10.0134  13.0150   H         1 YJ9    0.0180
    57 H       -6.9487 -11.0154  13.4311   H         1 YJ9    0.0180
    58 H       -6.0897 -11.2242  10.2297   H         1 YJ9    0.0180
    59 H       -6.1633 -12.2318  10.6483   H         1 YJ9    0.0180
    60 H       -4.1654 -14.2730  15.6653   H         1 YJ9    0.0897
    61 H       -0.9293 -13.4592  12.9650   H         1 YJ9    0.0897
    62 H       -2.2967 -11.7656  11.7939   H         1 YJ9    0.0891
    63 H       -5.5589 -12.5688  14.4831   H         1 YJ9    0.0891
@<TRIPOS>BOND
     1     1     2    1
     2    10     1    1
     3     1    13    1
     4     2     3   am
     5     2     6    2
     6     3     4    1
     7     4     5    1
     8     4     7    1
     9     4     8    1
    10     5     9    2
    11     8     7    1
    12    10    11    1
    13    24    10   am
    14    11    12    1
    15    12    13    1
    16    12    14    1
    17    14    15    1
    18    14    22    2
    19    14    23    2
    20    15    16   ar
    21    15    20   ar
    22    16    17   ar
    23    16    21    1
    24    17    18   ar
    25    19    18   ar
    26    20    19   ar
    27    24    25    2
    28    27    24    1
    29    27    26    1
    30    28    26    1
    31    27    28    1
    32    33    27    1
    33    30    29   ar
    34    29    34   ar
    35    31    30   ar
    36    30    35    1
    37    32    31   ar
    38    32    33   ar
    39    33    34   ar
    40    35    36    1
    41    35    37    1
    42    35    38    1
    43     1    39    1
    44     3    40    1
    45     5    41    1
    46     7    42    1
    47     7    43    1
    48     8    44    1
    49     8    45    1
    50     9    46    1
    51    11    47    1
    52    11    48    1
    53    12    49    1
    54    13    50    1
    55    13    51    1
    56    17    52    1
    57    18    53    1
    58    19    54    1
    59    20    55    1
    60    26    56    1
    61    26    57    1
    62    28    58    1
    63    28    59    1
    64    29    60    1
    65    31    61    1
    66    32    62    1
    67    34    63    1
@<TRIPOS>SUBSTRUCTURE
     1 YJ9         1 GROUP             0 ****  ****    0  
@<TRIPOS>MOLECULE
5mqy_ligand
    48    51     1     0     0
SMALL
USER_CHARGES
****
Generated from the CSD

@<TRIPOS>ATOM
     1 C2      -1.0844 -13.9237  12.4335   C.ar      1 GH4   -0.0477
     2 C3      -1.3372 -14.2408  13.7283   C.ar      1 GH4    0.1160
     3 C5      -1.8968 -15.3030  15.5922   C.3       1 GH4    0.1854
     4 C9      -2.5728 -11.8695  12.6679   C.ar      1 GH4   -0.0404
     5 C10     -3.1618 -10.6357  12.0704   C.3       1 GH4    0.0581
     6 C11     -6.0748  -7.9419  14.6127   C.ar      1 GH4   -0.0331
     7 C12     -6.7711  -8.1729  15.8089   C.ar      1 GH4   -0.0706
     8 C13     -6.0367  -7.8752  16.9497   C.ar      1 GH4   -0.0729
     9 C14     -4.7651  -7.5236  17.0451   C.ar      1 GH4   -0.0706
    10 C21     -1.3419  -9.1199  11.1749   C.ar      1 GH4    0.1754
    11 C28     -1.0217  -9.8172   9.9189   C.ar      1 GH4    0.2088
    12 C1      -1.7332 -12.7810  11.9424   C.ar      1 GH4   -0.0782
    13 O4      -0.9056 -15.2266  14.5736   O.3       1 GH4   -0.2956
    14 O6      -2.2420 -13.9272  15.7060   O.3       1 GH4   -0.2927
    15 C7      -2.1583 -13.3522  14.4673   C.ar      1 GH4    0.1170
    16 C8      -2.7956 -12.2119  13.9135   C.ar      1 GH4   -0.0378
    17 C15     -4.0253  -7.4027  15.9068   C.ar      1 GH4   -0.0331
    18 C16     -4.7638  -7.5156  14.6752   C.ar      1 GH4    0.0912
    19 O17     -4.1709  -7.3715  13.3964   O.3       1 GH4   -0.3160
    20 C18     -2.8504  -7.2253  13.2179   C.3       1 GH4    0.0909
    21 C19     -2.2077  -8.6852  13.4051   C.3       1 GH4    0.0614
    22 N20     -2.1572  -9.5387  12.1299   N.pl3     1 GH4   -0.2731
    23 N22     -0.6679  -8.0052  11.3517   N.ar      1 GH4   -0.2382
    24 N23      1.6773  -5.6995   9.9917   N.2       1 GH4   -0.3334
    25 C24      0.8344  -6.2717  10.7955   C.2       1 GH4    0.0532
    26 C25      0.2028  -7.4935  10.4633   C.ar      1 GH4    0.1384
    27 N26      0.5163  -8.0781   9.2910   N.ar      1 GH4   -0.2687
    28 C27     -0.1187  -9.2158   9.1099   C.ar      1 GH4    0.0553
    29 F29     -1.6066 -11.0285   9.6095   F         1 GH4   -0.1700
    30 H1      -0.4209 -14.5178  11.8156   H         1 GH4    0.0493
    31 H2      -1.4860 -15.6996  16.5323   H         1 GH4    0.0970
    32 H3      -2.7560 -15.9149  15.2804   H         1 GH4    0.0970
    33 H4      -4.0591 -10.3445  12.6361   H         1 GH4    0.0665
    34 H5      -3.4354 -10.8283  11.0225   H         1 GH4    0.0665
    35 H6      -6.5588  -8.0957  13.6552   H         1 GH4    0.0542
    36 H7      -7.7874  -8.5486  15.8397   H         1 GH4    0.0589
    37 H8      -6.5779  -7.9396  17.8867   H         1 GH4    0.0523
    38 H9      -4.3181  -7.3346  18.0143   H         1 GH4    0.0589
    39 H10     -1.5831 -12.5602  10.8918   H         1 GH4    0.0437
    40 H11     -3.4698 -11.6212  14.5232   H         1 GH4    0.0451
    41 H12     -2.9548  -7.2332  15.9269   H         1 GH4    0.0542
    42 H13     -2.4396  -6.5295  13.9643   H         1 GH4    0.0634
    43 H14     -2.6422  -6.8440  12.2073   H         1 GH4    0.0634
    44 H15     -2.8029  -9.2268  14.1551   H         1 GH4    0.0552
    45 H16     -1.1788  -8.5607  13.7736   H         1 GH4    0.0552
    46 H17      2.1126  -4.8291  10.2541   H         1 GH4    0.1364
    47 H18      0.6074  -5.7994  11.7502   H         1 GH4    0.1152
    48 H19      0.1120  -9.7416   8.1905   H         1 GH4    0.0887
@<TRIPOS>BOND
     1     1     2   ar
     2    12     1   ar
     3     2    13    1
     4    15     2   ar
     5     3    13    1
     6    14     3    1
     7     5     4    1
     8     4    12   ar
     9     4    16   ar
    10    22     5    1
    11     6     7   ar
    12    18     6   ar
    13     7     8   ar
    14     9     8   ar
    15    17     9   ar
    16    10    11   ar
    17    10    22    1
    18    23    10   ar
    19    11    28   ar
    20    11    29    1
    21    15    14    1
    22    16    15   ar
    23    18    17   ar
    24    19    18    1
    25    20    19    1
    26    21    20    1
    27    22    21    1
    28    26    23   ar
    29    25    24    2
    30    25    26    1
    31    26    27   ar
    32    27    28   ar
    33     1    30    1
    34     3    31    1
    35     3    32    1
    36     5    33    1
    37     5    34    1
    38     6    35    1
    39     7    36    1
    40     8    37    1
    41     9    38    1
    42    12    39    1
    43    16    40    1
    44    17    41    1
    45    20    42    1
    46    20    43    1
    47    21    44    1
    48    21    45    1
    49    24    46    1
    50    25    47    1
    51    28    48    1
@<TRIPOS>SUBSTRUCTURE
     1 GH4         1 GROUP             0 ****  ****    0  
@<TRIPOS>MOLECULE
1mhw_ligand
   101   104     5     0     0
SMALL
USER_CHARGES
****
Generated from the CSD

@<TRIPOS>ATOM
     1 CA       2.1924  -3.2687   6.2798   C.3       1 BP4    0.0709
     2 C        1.1431  -3.6969   7.2807   C.2       1 BP4    0.1900
     3 O        1.1912  -3.2003   8.4107   O.2       1 BP4   -0.3939
     4 C2       3.4851  -6.3502   3.3539   C.ar      1 BP4   -0.0239
     5 C3       4.1337  -6.2354   4.6690   C.ar      1 BP4   -0.0596
     6 C4       3.7057  -5.2388   5.6278   C.ar      1 BP4   -0.0566
     7 C5       2.6250  -4.3316   5.2911   C.ar      1 BP4   -0.0233
     8 C6       1.9651  -4.4295   4.0008   C.ar      1 BP4   -0.0566
     9 C1       2.3828  -5.4231   3.0455   C.ar      1 BP4   -0.0596
    10 C11      4.8491  -9.3923   0.3793   C.ar      1 BP4   -0.0626
    11 C18      3.5489  -7.3032   0.9293   C.ar      1 BP4   -0.0556
    12 C20      3.9480  -7.3935   2.3425   C.ar      1 BP4   -0.0219
    13 C23      3.9933  -8.2891  -0.0449   C.ar      1 BP4   -0.0622
    14 C25      4.8146  -8.5157   2.7462   C.ar      1 BP4   -0.0556
    15 C26      5.2609  -9.5040   1.7730   C.ar      1 BP4   -0.0622
    16 N        0.3953  -4.9020   7.1029   N.am      2 CYS1  -0.2632
    17 CA      -0.2826  -5.5220   8.0963   C.3       2 CYS1   0.1397
    18 C        0.0177  -6.9043   8.4750   C.2       2 CYS1   0.2047
    19 O        0.7938  -7.6219   7.8126   O.2       2 CYS1  -0.3944
    20 CB      -1.8395  -5.3955   7.7796   C.3       2 CYS1   0.0311
    21 SG      -2.3980  -3.6851   7.3701   S.3       2 CYS1  -0.1735
    22 N       -0.6949  -7.2202   9.6633   N.am      3 DAR   -0.2637
    23 CA      -0.5391  -8.6099  10.2857   C.3       3 DAR    0.1311
    24 CB      -1.0265  -9.8110   9.3571   C.3       3 DAR   -0.0092
    25 CG      -2.4588  -9.6294   8.7004   C.3       3 DAR   -0.0156
    26 CD      -3.2247 -10.8742   8.7922   C.3       3 DAR    0.0627
    27 NE      -4.5049 -11.0269   8.2860   N.pl3     3 DAR   -0.2723
    28 CZ      -5.7057 -10.3916   8.6663   C.cat     3 DAR    0.2882
    29 NH1     -6.1283 -10.2460   9.9661   N.pl3     3 DAR   -0.2849
    30 NH2     -6.5701  -9.8672   7.7695   N.pl3     3 DAR   -0.2849
    31 C       -1.0750  -8.8322  11.6642   C.2       3 DAR    0.2040
    32 O       -0.5841  -9.7599  12.3287   O.2       3 DAR   -0.3944
    33 N       -2.0582  -8.0499  12.0869   N.am      4 TYR1  -0.2621
    34 CA      -2.6301  -8.2045  13.3205   C.3       4 TYR1   0.1389
    35 C       -3.6694  -9.3246  13.0493   C.2       4 TYR1   0.2036
    36 O       -4.4159  -9.2028  12.0447   O.2       4 TYR1  -0.3944
    37 CB      -3.3904  -6.9457  13.9100   C.3       4 TYR1   0.0163
    38 CG      -4.2754  -7.3343  15.1406   C.ar      4 TYR1  -0.0493
    39 CD1     -3.7059  -7.3100  16.4829   C.ar      4 TYR1  -0.0685
    40 CD2     -5.6906  -7.7406  14.9569   C.ar      4 TYR1  -0.0685
    41 CE1     -4.5269  -7.6913  17.6081   C.ar      4 TYR1  -0.0398
    42 CE2     -6.4838  -8.1174  16.0828   C.ar      4 TYR1  -0.0398
    43 CZ      -5.9081  -8.0947  17.4022   C.ar      4 TYR1   0.0805
    44 OH      -6.6692  -8.4624  18.4544   O.3       4 TYR1  -0.3376
    45 C1'     -3.1347 -13.5140  13.5753   C.ar      5 PEA   -0.0411
    46 C6'     -3.2107 -13.9106  14.9803   C.ar      5 PEA   -0.0603
    47 C5'     -2.1487 -14.7043  15.5669   C.ar      5 PEA   -0.0686
    48 C4'     -1.0165 -15.1024  14.7527   C.ar      5 PEA   -0.0687
    49 C3'     -0.9393 -14.7054  13.3584   C.ar      5 PEA   -0.0686
    50 C2'     -1.9922 -13.9152  12.7691   C.ar      5 PEA   -0.0603
    51 C2      -4.2368 -12.6846  12.9561   C.3       5 PEA    0.0011
    52 C1      -4.9684 -11.5615  13.6148   C.3       5 PEA    0.0405
    53 N       -3.8948 -10.5198  13.9026   N.am      5 PEA   -0.2830
    54 H1       3.0822  -2.9448   6.8396   H         1 BP4    0.0662
    55 H2       1.7890  -2.4194   5.7089   H         1 BP4    0.0662
    56 H3       4.9448  -6.9076   4.9243   H         1 BP4    0.0610
    57 H4       4.1914  -5.1706   6.5945   H         1 BP4    0.0564
    58 H5       1.1550  -3.7521   3.7559   H         1 BP4    0.0564
    59 H6       1.8798  -5.4894   2.0876   H         1 BP4    0.0610
    60 H7       5.1790 -10.1299  -0.3433   H         1 BP4    0.0610
    61 H8       2.9120  -6.4872   0.6076   H         1 BP4    0.0615
    62 H9       3.6895  -8.2041  -1.0820   H         1 BP4    0.0615
    63 H10      5.1239  -8.6068   3.7812   H         1 BP4    0.0615
    64 H11      5.8993 -10.3224   2.0856   H         1 BP4    0.0615
    65 H12      0.3717  -5.3109   6.1905   H         2 CYS1   0.1884
    66 H13     -0.0766  -4.9289   8.9996   H         2 CYS1   0.0808
    67 H14     -2.3991  -5.7378   8.6627   H         2 CYS1   0.0422
    68 H15     -2.0706  -6.0469   6.9239   H         2 CYS1   0.0422
    69 H16     -3.3886  -3.6919   7.1841   H         2 CYS1   0.1019
    70 H17     -1.2927  -6.5408  10.0889   H         3 DAR    0.1883
    71 H18      0.5498  -8.7324  10.3822   H         3 DAR    0.0800
    72 H19     -1.0478 -10.7250   9.9688   H         3 DAR    0.0313
    73 H20     -0.2942  -9.9301   8.5451   H         3 DAR    0.0313
    74 H21     -2.3399  -9.3543   7.6421   H         3 DAR    0.0301
    75 H22     -3.0008  -8.8309   9.2282   H         3 DAR    0.0301
    76 H23     -3.2975 -11.1030   9.8656   H         3 DAR    0.0689
    77 H24     -2.6121 -11.6405   8.2946   H         3 DAR    0.0689
    78 H25     -4.5933 -11.7059   7.5166   H         3 DAR    0.2642
    79 H26     -7.0189  -9.7695  10.1678   H         3 DAR    0.2615
    80 H27     -5.5544 -10.6135  10.7385   H         3 DAR    0.2615
    81 H28     -6.3602  -9.9164   6.7623   H         3 DAR    0.2615
    82 H29     -7.4388  -9.4183   8.0932   H         3 DAR    0.2615
    83 H30     -2.3924  -7.3242  11.4856   H         4 TYR1   0.1885
    84 H31     -1.8696  -8.5264  14.0471   H         4 TYR1   0.0821
    85 H32     -4.0344  -6.5183  13.1273   H         4 TYR1   0.0453
    86 H33     -2.6496  -6.1961  14.2251   H         4 TYR1   0.0453
    87 H34     -2.6758  -7.0085  16.6346   H         4 TYR1   0.0530
    88 H35     -6.1243  -7.7515  13.9635   H         4 TYR1   0.0530
    89 H36     -4.1119  -7.6766  18.6094   H         4 TYR1   0.0525
    90 H37     -7.5157  -8.4194  15.9446   H         4 TYR1   0.0525
    91 H38     -6.1575  -8.3969  19.2522   H         4 TYR1   0.2458
    92 H39     -4.0605 -13.6114  15.5831   H         5 PEA    0.0557
    93 H40     -2.2006 -14.9988  16.6088   H         5 PEA    0.0599
    94 H41     -0.2234 -15.6998  15.1878   H         5 PEA    0.0559
    95 H42     -0.0874 -15.0039  12.7583   H         5 PEA    0.0599
    96 H43     -1.9323 -13.6209  11.7275   H         5 PEA    0.0557
    97 H44     -5.0154 -13.4072  12.6708   H         5 PEA    0.0446
    98 H45     -3.7931 -12.2468  12.0498   H         5 PEA    0.0446
    99 H46     -5.4407 -11.9005  14.5486   H         5 PEA    0.0542
   100 H47     -5.7369 -11.1517  12.9429   H         5 PEA    0.0542
   101 H48     -3.3128 -10.6467  14.7058   H         5 PEA    0.1853
@<TRIPOS>BOND
     1     2     1    1
     2     1     7    1
     3     2     3    2
     4    16     2   am
     5     5     4   ar
     6     9     4   ar
     7     4    12    1
     8     6     5   ar
     9     7     6   ar
    10     7     8   ar
    11     8     9   ar
    12    13    10   ar
    13    15    10   ar
    14    12    11   ar
    15    11    13   ar
    16    12    14   ar
    17    14    15   ar
    18    17    16    1
    19    18    17    1
    20    17    20    1
    21    18    19    2
    22    22    18   am
    23    20    21    1
    24    23    22    1
    25    23    24    1
    26    31    23    1
    27    24    25    1
    28    25    26    1
    29    26    27    1
    30    27    28   ar
    31    28    29   ar
    32    28    30   ar
    33    31    32    2
    34    33    31   am
    35    34    33    1
    36    35    34    1
    37    34    37    1
    38    35    36    2
    39    53    35   am
    40    37    38    1
    41    38    39   ar
    42    38    40   ar
    43    39    41   ar
    44    40    42   ar
    45    41    43   ar
    46    42    43   ar
    47    43    44    1
    48    45    46   ar
    49    45    50   ar
    50    51    45    1
    51    46    47   ar
    52    47    48   ar
    53    49    48   ar
    54    50    49   ar
    55    52    51    1
    56    52    53    1
    57     1    54    1
    58     1    55    1
    59     5    56    1
    60     6    57    1
    61     8    58    1
    62     9    59    1
    63    10    60    1
    64    11    61    1
    65    13    62    1
    66    14    63    1
    67    15    64    1
    68    16    65    1
    69    17    66    1
    70    20    67    1
    71    20    68    1
    72    21    69    1
    73    22    70    1
    74    23    71    1
    75    24    72    1
    76    24    73    1
    77    25    74    1
    78    25    75    1
    79    26    76    1
    80    26    77    1
    81    27    78    1
    82    29    79    1
    83    29    80    1
    84    30    81    1
    85    30    82    1
    86    33    83    1
    87    34    84    1
    88    37    85    1
    89    37    86    1
    90    39    87    1
    91    40    88    1
    92    41    89    1
    93    42    90    1
    94    44    91    1
    95    46    92    1
    96    47    93    1
    97    48    94    1
    98    49    95    1
    99    50    96    1
   100    51    97    1
   101    51    98    1
   102    52    99    1
   103    52   100    1
   104    53   101    1
@<TRIPOS>SUBSTRUCTURE
     1 BP4         1 GROUP             0 ****  ****    0  
     2 CYS1       16 RESIDUE           0 ****  CYS     0  
     3 DAR        22 GROUP             0 ****  ****    0  
     4 TYR1       33 RESIDUE           0 ****  TYR     0  
     5 PEA        45 GROUP             0 ****  ****    0  
@<TRIPOS>MOLECULE
5f02_ligand
    66    70     1     0     0
SMALL
USER_CHARGES
****
Generated from the CSD

@<TRIPOS>ATOM
     1 N1      -3.3447  -9.5469  13.0307   N.am      1 5T9   -0.2553
     2 C2      -3.7871  -9.6128  14.4094   C.3       1 5T9    0.0587
     3 C3      -3.5316  -8.1972  14.9959   C.3       1 5T9    0.1053
     4 C4      -2.3845  -7.6675  14.1677   C.3       1 5T9    0.0123
     5 C5      -2.6983  -8.2714  12.7843   C.3       1 5T9    0.1343
     6 C6      -1.3830  -8.3671  11.9904   C.2       1 5T9    0.1971
     7 S7      -4.9075  -7.1395  14.9262   S.o2      1 5T9   -0.0024
     8 N8      -1.3401  -7.5268  10.9267   N.am      1 5T9   -0.2955
     9 O9      -0.4265  -9.0861  12.3157   O.2       1 5T9   -0.3951
    10 C10     -0.1847  -7.3634  10.1251   C.3       1 5T9    0.0783
    11 C11      0.6960  -6.2879  10.5969   C.2       1 5T9    0.0437
    12 N12      1.7534  -5.8652   9.9694   N.2       1 5T9   -0.2686
    13 C13      0.4293  -8.5907   9.4517   C.3       1 5T9   -0.0407
    14 C14     -0.2847  -7.5820   8.6170   C.3       1 5T9   -0.0407
    15 O15     -4.5266  -5.9409  15.5739   O.2       1 5T9   -0.1703
    16 O16     -5.3095  -7.0803  13.5633   O.2       1 5T9   -0.1703
    17 C17     -6.1207  -7.9378  15.8139   C.ar      1 5T9    0.0913
    18 C18     -6.1466  -8.1205  17.1958   C.ar      1 5T9    0.0564
    19 C19     -7.1766  -8.7573  17.8931   C.ar      1 5T9   -0.0175
    20 C20     -8.2444  -9.2841  17.1659   C.ar      1 5T9    0.0913
    21 C21     -8.2712  -9.1355  15.7698   C.ar      1 5T9   -0.0312
    22 C22     -7.2284  -8.4806  15.1231   C.ar      1 5T9   -0.0453
    23 CL2     -4.8768  -7.4788  18.1045   Cl        1 5T9   -0.0717
    24 O24     -9.2022  -9.8971  17.9240   O.3       1 5T9   -0.3212
    25 C25    -10.3681 -10.3220  17.2143   C.3       1 5T9    0.0594
    26 C26     -3.5853 -10.4405  12.0180   C.2       1 5T9    0.1866
    27 C27     -4.2913 -11.7344  12.3222   C.3       1 5T9    0.1377
    28 O28     -3.1603 -10.2074  10.8791   O.2       1 5T9   -0.3626
    29 C29     -5.7622 -11.6507  12.8782   C.3       1 5T9   -0.0336
    30 N30     -6.2799 -12.3663  11.6798   N.4       1 5T9    0.2164
    31 C31     -4.9528 -12.3538  11.0338   C.3       1 5T9   -0.0336
    32 C32     -3.3312 -12.6183  13.0206   C.ar      1 5T9    0.0449
    33 N33     -2.2679 -13.1829  12.3923   N.ar      1 5T9   -0.2711
    34 C34     -1.4649 -14.0022  13.1124   C.ar      1 5T9    0.0560
    35 C35     -1.6720 -14.2803  14.4783   C.ar      1 5T9    0.0995
    36 C36     -2.7675 -13.6973  15.0942   C.ar      1 5T9    0.0004
    37 C37     -3.6040 -12.8659  14.3702   C.ar      1 5T9   -0.0125
    38 CL3     -0.6449 -15.2930  15.3767   Cl        1 5T9   -0.0331
    39 H1      -3.2095 -10.3679  14.9627   H         1 5T9    0.0544
    40 H2      -4.8574  -9.8615  14.4582   H         1 5T9    0.0544
    41 H3      -3.2258  -8.2866  16.0488   H         1 5T9    0.0561
    42 H4      -1.4158  -8.0217  14.5500   H         1 5T9    0.0332
    43 H5      -2.3863  -6.5680  14.1357   H         1 5T9    0.0332
    44 H6      -3.3930  -7.6197  12.2342   H         1 5T9    0.0804
    45 H7      -2.1593  -7.0004  10.6990   H         1 5T9    0.1774
    46 H8       0.4451  -5.8086  11.5421   H         1 5T9    0.1090
    47 H9       2.3074  -5.1196  10.3609   H         1 5T9    0.2165
    48 H10     -0.0161  -9.5837   9.6116   H         1 5T9    0.0220
    49 H11      1.5227  -8.6866   9.3794   H         1 5T9    0.0220
    50 H12      0.2844  -6.9371   7.9312   H         1 5T9    0.0220
    51 H13     -1.2545  -7.8343   8.1633   H         1 5T9    0.0220
    52 H14     -7.1468  -8.8400  18.9735   H         1 5T9    0.0547
    53 H15     -9.1028  -9.5303  15.1973   H         1 5T9    0.0544
    54 H16     -7.2667  -8.3822  14.0442   H         1 5T9    0.0608
    55 H17    -11.0696 -10.7995  17.9142   H         1 5T9    0.0577
    56 H18    -10.0805 -11.0428  16.4347   H         1 5T9    0.0577
    57 H19    -10.8514  -9.4508  16.7481   H         1 5T9    0.0577
    58 H20     -6.1415 -10.6234  12.9823   H         1 5T9    0.0719
    59 H21     -5.9136 -12.1949  13.8221   H         1 5T9    0.0719
    60 H22     -6.9811 -11.8499  11.1723   H         1 5T9    0.1997
    61 H23     -6.6235 -13.2926  11.8793   H         1 5T9    0.1997
    62 H24     -4.5744 -13.3545  10.7778   H         1 5T9    0.0719
    63 H25     -4.8960 -11.7029  10.1490   H         1 5T9    0.0719
    64 H26     -0.6220 -14.4667  12.6137   H         1 5T9    0.0940
    65 H27     -2.9691 -13.8920  16.1413   H         1 5T9    0.0814
    66 H28     -4.4648 -12.4098  14.8456   H         1 5T9    0.0945
@<TRIPOS>BOND
     1     1     2    1
     2     1     5    1
     3     1    26   am
     4     2     3    1
     5     3     4    1
     6     3     7    1
     7     4     5    1
     8     5     6    1
     9     6     8   am
    10     6     9    2
    11     7    15    2
    12     7    16    2
    13     7    17    1
    14     8    10    1
    15    10    11    1
    16    10    13    1
    17    10    14    1
    18    11    12    2
    19    13    14    1
    20    17    18   ar
    21    17    22   ar
    22    18    19   ar
    23    18    23    1
    24    19    20   ar
    25    20    21   ar
    26    20    24    1
    27    21    22   ar
    28    24    25    1
    29    26    27    1
    30    26    28    2
    31    27    29    1
    32    27    31    1
    33    27    32    1
    34    29    30    1
    35    30    31    1
    36    32    33   ar
    37    32    37   ar
    38    33    34   ar
    39    34    35   ar
    40    35    36   ar
    41    35    38    1
    42    36    37   ar
    43     2    39    1
    44     2    40    1
    45     3    41    1
    46     4    42    1
    47     4    43    1
    48     5    44    1
    49     8    45    1
    50    11    46    1
    51    12    47    1
    52    13    48    1
    53    13    49    1
    54    14    50    1
    55    14    51    1
    56    19    52    1
    57    21    53    1
    58    22    54    1
    59    25    55    1
    60    25    56    1
    61    25    57    1
    62    29    58    1
    63    29    59    1
    64    30    60    1
    65    30    61    1
    66    31    62    1
    67    31    63    1
    68    34    64    1
    69    36    65    1
    70    37    66    1
@<TRIPOS>SUBSTRUCTURE
     1 5T9         1 GROUP             0 ****  ****    0  
@<TRIPOS>MOLECULE
5maj_ligand
    56    60     1     0     0
SMALL
USER_CHARGES
****
Generated from the CSD

@<TRIPOS>ATOM
     1 C5       0.6070  -9.4651   7.1511   C.3       1 7KH    0.0592
     2 C8       0.6888  -6.1310  10.7255   C.2       1 7KH    0.0629
     3 C1      -1.4415 -10.8345   7.6137   C.3       1 7KH    0.0592
     4 C14     -2.2697  -7.9942  14.0505   C.3       1 7KH   -0.0288
     5 C9      -3.1951 -11.2335  12.3059   C.2       1 7KH    0.0065
     6 C4       1.2714 -10.7874   6.6190   C.3       1 7KH    0.0687
     7 C13     -2.8373  -7.2270  15.1853   C.3       1 7KH   -0.0508
     8 C2      -0.6214 -12.1231   7.3144   C.3       1 7KH    0.0687
     9 C18     -1.9683  -8.4951  10.9570   C.ar      1 7KH    0.1966
    10 N16     -3.0151  -8.7788  11.7342   N.pl3     1 7KH   -0.2599
    11 O3       0.4655 -11.9464   6.4500   O.3       1 7KH   -0.3756
    12 N6      -0.4399  -9.8471   8.0904   N.pl3     1 7KH   -0.2673
    13 N7       1.7020  -5.7705   9.9683   N.2       1 7KH   -0.3220
    14 C10     -3.8143 -10.0351  11.5823   C.3       1 7KH    0.0643
    15 C11     -4.6208  -7.9133  13.5385   C.3       1 7KH   -0.0288
    16 C12     -4.3647  -7.0203  14.8262   C.3       1 7KH   -0.0508
    17 C15     -3.2760  -7.8007  12.8881   C.3       1 7KH    0.0487
    18 N17     -1.7117  -9.3655   9.9448   N.ar      1 7KH   -0.2116
    19 N19     -1.2045  -7.4514  11.2194   N.ar      1 7KH   -0.2284
    20 C20     -0.1820  -7.2514  10.4311   C.ar      1 7KH    0.1398
    21 N21      0.1437  -8.0091   9.3499   N.ar      1 7KH   -0.2285
    22 C22     -0.6515  -9.0534   9.2004   C.ar      1 7KH    0.1949
    23 N23     -3.5459 -11.5894  13.5785   N.2       1 7KH   -0.3405
    24 C24     -2.8279 -12.6688  13.8539   C.2       1 7KH    0.1296
    25 N25     -1.9699 -13.0505  12.8608   N.pl3     1 7KH   -0.2164
    26 C26     -2.2388 -12.0855  11.8336   C.2       1 7KH    0.0501
    27 C27     -1.0925 -14.1461  12.8921   C.2       1 7KH    0.0784
    28 C28     -1.0535 -14.8770  14.0533   C.2       1 7KH   -0.0273
    29 C29     -1.9767 -14.4274  15.1309   C.2       1 7KH   -0.0624
    30 C30     -2.8376 -13.3827  15.0282   C.2       1 7KH   -0.0197
    31 H1       0.1719  -8.9002   6.3136   H         1 7KH    0.0554
    32 H2       1.3597  -8.8451   7.6599   H         1 7KH    0.0554
    33 H3       0.4925  -5.5532  11.6275   H         1 7KH    0.1182
    34 H4      -2.1954 -11.0272   8.3912   H         1 7KH    0.0554
    35 H5      -1.9391 -10.4719   6.7022   H         1 7KH    0.0554
    36 H6      -2.1806  -9.0592  14.3107   H         1 7KH    0.0288
    37 H7      -1.2806  -7.6001  13.7744   H         1 7KH    0.0288
    38 H8       2.0719 -11.0522   7.3255   H         1 7KH    0.0581
    39 H9       1.7105 -10.5548   5.6377   H         1 7KH    0.0581
    40 H10     -2.3304  -6.2560  15.2860   H         1 7KH    0.0266
    41 H11     -2.7350  -7.7931  16.1229   H         1 7KH    0.0266
    42 H12     -1.2997 -12.8618   6.8627   H         1 7KH    0.0581
    43 H13     -0.2380 -12.5127   8.2689   H         1 7KH    0.0581
    44 H14      2.2703  -4.9800  10.2297   H         1 7KH    0.1465
    45 H15     -4.8205  -9.8612  11.9914   H         1 7KH    0.0662
    46 H16     -3.8902 -10.2741  10.5113   H         1 7KH    0.0662
    47 H17     -5.4191  -7.5000  12.9046   H         1 7KH    0.0288
    48 H18     -4.8632  -8.9534  13.8020   H         1 7KH    0.0288
    49 H19     -4.5686  -5.9618  14.6071   H         1 7KH    0.0266
    50 H20     -5.0037  -7.3523  15.6578   H         1 7KH    0.0266
    51 H21     -3.1689  -6.7846  12.4806   H         1 7KH    0.0569
    52 H22     -1.7655 -12.0409  10.8538   H         1 7KH    0.0678
    53 H23     -0.4719 -14.4041  12.0351   H         1 7KH    0.1193
    54 H24     -0.3897 -15.7312  14.1781   H         1 7KH    0.0545
    55 H25     -1.9603 -14.9769  16.0709   H         1 7KH    0.0629
    56 H26     -3.5096 -13.1208  15.8441   H         1 7KH    0.0571
@<TRIPOS>BOND
     1     1     6    1
     2    12     1    1
     3     2    13    2
     4    20     2    1
     5     3     8    1
     6    12     3    1
     7     4     7    1
     8    17     4    1
     9    14     5    1
    10     5    23    1
    11     5    26    2
    12     6    11    1
    13    16     7    1
    14     8    11    1
    15     9    10    1
    16     9    18   ar
    17    19     9   ar
    18    10    14    1
    19    10    17    1
    20    22    12    1
    21    15    16    1
    22    17    15    1
    23    18    22   ar
    24    19    20   ar
    25    20    21   ar
    26    21    22   ar
    27    23    24    2
    28    24    25    1
    29    24    30    1
    30    25    26    1
    31    25    27    1
    32    27    28    2
    33    28    29    1
    34    29    30    2
    35     1    31    1
    36     1    32    1
    37     2    33    1
    38     3    34    1
    39     3    35    1
    40     4    36    1
    41     4    37    1
    42     6    38    1
    43     6    39    1
    44     7    40    1
    45     7    41    1
    46     8    42    1
    47     8    43    1
    48    13    44    1
    49    14    45    1
    50    14    46    1
    51    15    47    1
    52    15    48    1
    53    16    49    1
    54    16    50    1
    55    17    51    1
    56    26    52    1
    57    27    53    1
    58    28    54    1
    59    29    55    1
    60    30    56    1
@<TRIPOS>SUBSTRUCTURE
     1 7KH         1 GROUP             0 ****  ****    0  
@<TRIPOS>MOLECULE
3h89_ligand
   152   157     1     0     0
SMALL
USER_CHARGES
****
Generated from the CSD

@<TRIPOS>ATOM
     1 C1       2.6134  -4.5209   6.5241   C.3       1 NSX    0.0467
     2 C2       1.6571  -4.3685   7.5070   C.2       1 NSX    0.1803
     3 O3       1.6484  -3.3980   8.2203   O.2       1 NSX   -0.3967
     4 C4       0.4145  -3.1659   2.8001   C.3       1 NSX   -0.0150
     5 C5       1.7697  -2.5363   3.2658   C.2       1 NSX   -0.0932
     6 C6       2.4378  -2.9914   4.4660   C.2       1 NSX   -0.0930
     7 C7       1.8152  -4.1161   5.2971   C.3       1 NSX   -0.0075
     8 C8       0.4313  -4.7916   4.8906   C.3       1 NSX   -0.0396
     9 C9      -0.2171  -4.2768   3.6418   C.3       1 NSX   -0.0399
    10 C10     -1.1928  -1.4199  -1.0687   C.3       1 NSX   -0.0363
    11 C11     -1.6179  -3.0923   1.0352   C.3       1 NSX   -0.0402
    12 C12     -0.2199  -2.6562   1.5554   C.3       1 NSX   -0.0151
    13 C13     -2.0391  -2.4240  -0.2871   C.3       1 NSX   -0.0445
    14 C14      0.6981  -1.5828   0.7312   C.2       1 NSX   -0.0936
    15 C15      0.1990  -1.0021  -0.5209   C.2       1 NSX   -0.0982
    16 N16      0.7020  -5.4799   7.5677   N.am      1 NSX   -0.2640
    17 C17     -0.3685  -5.6521   8.4448   C.3       1 NSX    0.1373
    18 C18     -0.1489  -7.1136   8.6847   C.2       1 NSX    0.2057
    19 O19      0.4715  -7.9051   7.8273   O.2       1 NSX   -0.3942
    20 C20     -1.6199  -5.4395   7.6878   C.3       1 NSX    0.0043
    21 C22     -5.7970  -3.9047   2.5135   C.3       1 NSX    0.0676
    22 C23     -5.6329  -3.3564   1.3063   C.ar      1 NSX   -0.0306
    23 C24     -5.1881  -1.9193   1.1344   C.ar      1 NSX   -0.0639
    24 C25     -5.9335  -4.1579   0.0349   C.ar      1 NSX   -0.0639
    25 C26     -4.9894  -1.2509  -0.1736   C.ar      1 NSX   -0.0636
    26 C27     -5.7486  -3.5002  -1.3138   C.ar      1 NSX   -0.0636
    27 C28     -5.2823  -1.9890  -1.4506   C.ar      1 NSX   -0.0328
    28 N29     -0.6669  -7.5440  10.0079   N.am      1 NSX   -0.2636
    29 C30     -0.5475  -8.8759  10.4894   C.3       1 NSX    0.1311
    30 C31     -1.4056  -9.9432   9.5560   C.3       1 NSX   -0.0092
    31 C32     -2.8260  -9.5790   8.9087   C.3       1 NSX   -0.0156
    32 C33     -3.8645 -10.7362   8.9190   C.3       1 NSX    0.0627
    33 N34     -5.2247 -10.5400   8.3583   N.pl3     1 NSX   -0.2723
    34 C35     -6.3891 -10.1605   9.1938   C.cat     1 NSX    0.2882
    35 N36     -6.5172 -10.5080  10.5219   N.pl3     1 NSX   -0.2849
    36 N37     -7.4545  -9.4199   8.7186   N.pl3     1 NSX   -0.2849
    37 C38     -1.1152  -9.0898  11.8001   C.2       1 NSX    0.2039
    38 O39     -0.5969  -9.9667  12.5460   O.2       1 NSX   -0.3944
    39 N40     -2.1728  -8.3416  12.0870   N.am      1 NSX   -0.2635
    40 C41     -2.9131  -8.4209  13.3041   C.3       1 NSX    0.1336
    41 C42     -3.9206  -9.5924  13.0115   C.2       1 NSX    0.2019
    42 O43     -4.5875  -9.6092  11.9914   O.2       1 NSX   -0.3945
    43 C44     -3.7272  -7.1283  13.6464   C.3       1 NSX    0.0042
    44 C45     -4.5004  -7.4006  14.9903   C.3       1 NSX    0.0036
    45 C46     -3.7879  -7.2668  16.3271   C.3       1 NSX   -0.0217
    46 C47     -6.0436  -7.8421  14.9470   C.2       1 NSX   -0.0565
    47 C48     -4.5464  -7.5552  17.6019   C.3       1 NSX    0.0191
    48 C49     -6.7536  -8.1155  16.2156   C.2       1 NSX   -0.0196
    49 C50     -6.0366  -7.9837  17.5295   C.2       1 NSX    0.1042
    50 O51     -6.6936  -8.2396  18.6360   O.2       1 NSX   -0.3964
    51 C52     -3.1657 -13.6075  13.9050   C.3       1 NSX   -0.0392
    52 C53     -3.2901 -14.1098  15.4446   C.3       1 NSX   -0.0501
    53 C54     -2.1000 -14.9076  16.0102   C.3       1 NSX   -0.0528
    54 C55     -0.8986 -15.1863  15.1370   C.3       1 NSX   -0.0530
    55 C56     -0.8231 -14.7022  13.7084   C.3       1 NSX   -0.0528
    56 C57     -1.9423 -13.9131  13.0771   C.3       1 NSX   -0.0501
    57 C58     -4.1910 -12.8589  13.2493   C.3       1 NSX   -0.0299
    58 C59     -4.9538 -11.7930  13.8717   C.3       1 NSX    0.0312
    59 N60     -3.9789 -10.6184  14.0725   N.am      1 NSX   -0.2850
    60 C62     -5.0725  -1.3032  -2.6926   C.3       1 NSX    0.0235
    61 C63     -4.5630   0.1738  -2.7343   C.3       1 NSX   -0.0064
    62 C64     -5.3672  -1.9399  -4.0637   C.2       1 NSX   -0.0722
    63 C65     -4.3556   0.9082  -4.0579   C.2       1 NSX   -0.0826
    64 C66     -5.1601  -1.2002  -5.3349   C.2       1 NSX   -0.0883
    65 C67     -4.6600   0.1974  -5.3304   C.2       1 NSX   -0.0896
    66 C68     -4.7893  -4.2118   3.4287   C.2       1 NSX    0.1881
    67 C69     -2.6146  -4.2770   7.8274   C.2       1 NSX   -0.0923
    68 C70     -3.3740  -3.7318   6.9358   C.2       1 NSX   -0.0766
    69 C71     -3.4820  -4.1368   5.4522   C.3       1 NSX    0.0479
    70 N72     -4.6665  -3.6239   4.5764   N.am      1 NSX   -0.2775
    71 O73     -4.1539  -5.0240   3.0196   O.2       1 NSX   -0.3942
    72 H1       2.9635  -5.5614   6.4558   H         1 NSX    0.0525
    73 H2       3.4732  -3.8546   6.6872   H         1 NSX    0.0525
    74 H3       0.9553  -3.9224   2.2126   H         1 NSX    0.0445
    75 H4       2.2189  -1.7396   2.6747   H         1 NSX    0.0454
    76 H5       3.3775  -2.5367   4.7760   H         1 NSX    0.0454
    77 H6       2.3406  -4.8722   4.6952   H         1 NSX    0.0448
    78 H7      -0.2731  -4.6387   5.7214   H         1 NSX    0.0290
    79 H8       0.6108  -5.8685   4.7555   H         1 NSX    0.0290
    80 H9      -0.3300  -5.1432   2.9736   H         1 NSX    0.0291
    81 H10     -1.2110  -3.9110   3.9391   H         1 NSX    0.0291
    82 H11     -1.7899  -0.5006  -1.1596   H         1 NSX    0.0388
    83 H12     -1.0274  -1.8500  -2.0674   H         1 NSX    0.0388
    84 H13     -2.3650  -2.8398   1.8021   H         1 NSX    0.0290
    85 H14     -1.6038  -4.1814   0.8815   H         1 NSX    0.0290
    86 H15     -0.7025  -1.8453   2.1208   H         1 NSX    0.0445
    87 H16     -2.2326  -3.2514  -0.9855   H         1 NSX    0.0286
    88 H17     -2.9822  -1.9031  -0.0652   H         1 NSX    0.0286
    89 H18      1.6786  -1.2992   1.1108   H         1 NSX    0.0454
    90 H19      0.8042  -0.2787  -1.0654   H         1 NSX    0.0450
    91 H20      0.8354  -6.2070   6.8942   H         1 NSX    0.1884
    92 H21     -0.3260  -5.0325   9.3526   H         1 NSX    0.0821
    93 H22     -2.2176  -6.3437   7.8748   H         1 NSX    0.0435
    94 H23     -1.3089  -5.4172   6.6329   H         1 NSX    0.0435
    95 H24     -6.3141  -4.8574   2.3270   H         1 NSX    0.0647
    96 H25     -6.4711  -3.2203   3.0493   H         1 NSX    0.0647
    97 H26     -5.0019  -1.3387   2.0306   H         1 NSX    0.0545
    98 H27     -6.2747  -5.1846   0.1020   H         1 NSX    0.0545
    99 H28     -4.6323  -0.2280  -0.2097   H         1 NSX    0.0546
   100 H29     -5.9398  -4.0764  -2.2119   H         1 NSX    0.0546
   101 H30     -1.1204  -6.8660  10.5864   H         1 NSX    0.1883
   102 H31      0.5197  -9.1421  10.4958   H         1 NSX    0.0800
   103 H32     -1.5757 -10.8294  10.1849   H         1 NSX    0.0313
   104 H33     -0.7477 -10.2105   8.7160   H         1 NSX    0.0313
   105 H34     -2.6589  -9.2790   7.8637   H         1 NSX    0.0301
   106 H35     -3.2508  -8.7335   9.4695   H         1 NSX    0.0301
   107 H36     -3.9978 -11.0292   9.9708   H         1 NSX    0.0689
   108 H37     -3.4120 -11.5691   8.3608   H         1 NSX    0.0689
   109 H38     -5.3656 -10.6732   7.3468   H         1 NSX    0.2642
   110 H39     -7.3500 -10.2155  11.0528   H         1 NSX    0.2615
   111 H40     -5.7801 -11.0600  10.9832   H         1 NSX    0.2615
   112 H41     -7.4659  -9.1046   7.7380   H         1 NSX    0.2615
   113 H42     -8.2373  -9.1832   9.3448   H         1 NSX    0.2615
   114 H43     -2.4716  -7.6761  11.4029   H         1 NSX    0.1883
   115 H44     -2.2457  -8.6615  14.1448   H         1 NSX    0.0802
   116 H45     -4.4418  -6.9093  12.8393   H         1 NSX    0.0346
   117 H46     -3.0436  -6.2757  13.7722   H         1 NSX    0.0346
   118 H47     -4.7980  -6.3428  15.0384   H         1 NSX    0.0530
   119 H48     -3.4271  -6.2299  16.3961   H         1 NSX    0.0322
   120 H49     -2.9286  -7.9532  16.3028   H         1 NSX    0.0322
   121 H50     -6.5618  -7.9393  13.9942   H         1 NSX    0.0859
   122 H51     -4.5068  -6.6399  18.2107   H         1 NSX    0.0479
   123 H52     -4.0069  -8.3627  18.1184   H         1 NSX    0.0479
   124 H53     -7.8009  -8.4137  16.1972   H         1 NSX    0.0460
   125 H54     -2.7053 -12.6746  14.2626   H         1 NSX    0.0301
   126 H55     -4.1831 -14.7481  15.5158   H         1 NSX    0.0268
   127 H56     -3.4245 -13.2193  16.0760   H         1 NSX    0.0268
   128 H57     -2.4941 -15.8835  16.3299   H         1 NSX    0.0265
   129 H58     -1.7343 -14.3544  16.8877   H         1 NSX    0.0265
   130 H59     -0.7922 -16.2804  15.0982   H         1 NSX    0.0265
   131 H60     -0.0319 -14.7516  15.6564   H         1 NSX    0.0265
   132 H61     -0.6873 -15.5984  13.0853   H         1 NSX    0.0265
   133 H62      0.0752 -14.0707  13.6433   H         1 NSX    0.0265
   134 H63     -1.5190 -12.9499  12.7559   H         1 NSX    0.0268
   135 H64     -2.2799 -14.4775  12.1953   H         1 NSX    0.0268
   136 H65     -4.9335 -13.6002  12.9187   H         1 NSX    0.0287
   137 H66     -3.7100 -12.4046  12.3705   H         1 NSX    0.0287
   138 H67     -5.3519 -12.1266  14.8414   H         1 NSX    0.0520
   139 H68     -5.7854 -11.4894  13.2189   H         1 NSX    0.0520
   140 H69     -3.4070 -10.5525  14.8901   H         1 NSX    0.1851
   141 H70     -4.0407  -1.6834  -2.7198   H         1 NSX    0.0643
   142 H71     -3.5912   0.1819  -2.2191   H         1 NSX    0.0487
   143 H72     -5.2877   0.7688  -2.1593   H         1 NSX    0.0487
   144 H73     -5.7386  -2.9629  -4.1022   H         1 NSX    0.0620
   145 H74     -3.9912   1.9343  -4.0704   H         1 NSX    0.0611
   146 H75     -5.3781  -1.6897  -6.2829   H         1 NSX    0.0408
   147 H76     -4.5125   0.7138  -6.2777   H         1 NSX    0.0403
   148 H77     -2.6909  -3.8492   8.8259   H         1 NSX    0.0453
   149 H78     -4.0000  -2.9037   7.2649   H         1 NSX    0.0470
   150 H79     -3.5246  -5.2358   5.4277   H         1 NSX    0.0644
   151 H80     -2.5577  -3.7947   4.9639   H         1 NSX    0.0644
   152 H81     -5.2837  -2.8971   4.8778   H         1 NSX    0.1876
@<TRIPOS>BOND
     1     2     1    1
     2     1     7    1
     3     2     3    2
     4    16     2   am
     5     5     4    1
     6     9     4    1
     7     4    12    1
     8     6     5    2
     9     7     6    1
    10     7     8    1
    11     8     9    1
    12    13    10    1
    13    15    10    1
    14    12    11    1
    15    11    13    1
    16    12    14    1
    17    14    15    2
    18    17    16    1
    19    17    18    1
    20    20    17    1
    21    18    19    2
    22    18    28   am
    23    67    20    1
    24    21    22    1
    25    66    21    1
    26    22    23   ar
    27    22    24   ar
    28    23    25   ar
    29    24    26   ar
    30    25    27   ar
    31    26    27   ar
    32    27    60    1
    33    28    29    1
    34    29    30    1
    35    29    37    1
    36    30    31    1
    37    31    32    1
    38    32    33    1
    39    33    34   ar
    40    34    35   ar
    41    34    36   ar
    42    37    38    2
    43    37    39   am
    44    39    40    1
    45    40    41    1
    46    40    43    1
    47    41    42    2
    48    41    59   am
    49    43    44    1
    50    44    45    1
    51    44    46    1
    52    45    47    1
    53    46    48    2
    54    47    49    1
    55    48    49    1
    56    49    50    2
    57    51    52    1
    58    51    56    1
    59    57    51    1
    60    52    53    1
    61    53    54    1
    62    55    54    1
    63    56    55    1
    64    58    57    1
    65    59    58    1
    66    60    61    1
    67    60    62    1
    68    61    63    1
    69    62    64    2
    70    63    65    2
    71    64    65    1
    72    70    66   am
    73    66    71    2
    74    68    67    2
    75    69    68    1
    76    69    70    1
    77     1    72    1
    78     1    73    1
    79     4    74    1
    80     5    75    1
    81     6    76    1
    82     7    77    1
    83     8    78    1
    84     8    79    1
    85     9    80    1
    86     9    81    1
    87    10    82    1
    88    10    83    1
    89    11    84    1
    90    11    85    1
    91    12    86    1
    92    13    87    1
    93    13    88    1
    94    14    89    1
    95    15    90    1
    96    16    91    1
    97    17    92    1
    98    20    93    1
    99    20    94    1
   100    21    95    1
   101    21    96    1
   102    23    97    1
   103    24    98    1
   104    25    99    1
   105    26   100    1
   106    28   101    1
   107    29   102    1
   108    30   103    1
   109    30   104    1
   110    31   105    1
   111    31   106    1
   112    32   107    1
   113    32   108    1
   114    33   109    1
   115    35   110    1
   116    35   111    1
   117    36   112    1
   118    36   113    1
   119    39   114    1
   120    40   115    1
   121    43   116    1
   122    43   117    1
   123    44   118    1
   124    45   119    1
   125    45   120    1
   126    46   121    1
   127    47   122    1
   128    47   123    1
   129    48   124    1
   130    51   125    1
   131    52   126    1
   132    52   127    1
   133    53   128    1
   134    53   129    1
   135    54   130    1
   136    54   131    1
   137    55   132    1
   138    55   133    1
   139    56   134    1
   140    56   135    1
   141    57   136    1
   142    57   137    1
   143    58   138    1
   144    58   139    1
   145    59   140    1
   146    60   141    1
   147    61   142    1
   148    61   143    1
   149    62   144    1
   150    63   145    1
   151    64   146    1
   152    65   147    1
   153    67   148    1
   154    68   149    1
   155    69   150    1
   156    69   151    1
   157    70   152    1
@<TRIPOS>SUBSTRUCTURE
     1 NSX         1 GROUP             0 ****  ****    0  
@<TRIPOS>MOLECULE
2xu1_ligand
    60    64     1     0     0
SMALL
USER_CHARGES
****
Generated from the CSD

@<TRIPOS>ATOM
     1 S1      -4.9046  -7.1260  14.9772   S.o2      1 424    0.0023
     2 N2      -3.3616  -9.3563  12.8643   N.am      1 424   -0.2566
     3 CL2     -4.7412  -7.4441  18.1490   Cl        1 424   -0.0687
     4 C3      -4.4194 -11.4574  12.1561   C.3       1 424    0.0409
     5 CL3     -0.9111 -15.1846  15.4412   Cl        1 424   -0.0415
     6 C4      -3.4625  -8.1974  14.9982   C.3       1 424    0.1066
     7 C5      -3.7221 -10.1553  11.8421   C.2       1 424    0.1702
     8 C6      -2.7066  -8.0642  12.7187   C.3       1 424    0.1342
     9 C7      -6.1450  -7.9520  15.9094   C.ar      1 424    0.1025
    10 C8      -3.6711  -9.5676  14.3108   C.3       1 424    0.0587
    11 C9      -2.3487  -7.5699  14.1305   C.3       1 424    0.0125
    12 C10     -1.4193  -8.1636  11.9599   C.2       1 424    0.1971
    13 C11     -5.9396 -11.3910  12.3727   C.3       1 424   -0.0708
    14 C12     -5.3582 -11.9818  11.0850   C.3       1 424   -0.0708
    15 C13     -0.0951  -7.3320  10.0530   C.3       1 424    0.0783
    16 N14     -1.3009  -7.3973  10.8637   N.am      1 424   -0.2955
    17 C15      0.9197  -6.3799  10.5599   C.2       1 424    0.0437
    18 N16      1.8742  -5.9358   9.7926   N.2       1 424   -0.2686
    19 C17     -3.5795 -12.4066  12.9934   C.ar      1 424   -0.0393
    20 O18     -4.5780  -5.9190  15.6398   O.2       1 424   -0.1690
    21 O19     -5.4263  -7.0916  13.6384   O.2       1 424   -0.1690
    22 C20      0.3771  -8.5730   9.3110   C.3       1 424   -0.0407
    23 C21     -0.3231  -7.4401   8.5440   C.3       1 424   -0.0407
    24 O22     -3.4384  -9.8323  10.7016   O.2       1 424   -0.3658
    25 C23     -6.0643  -8.0797  17.2779   C.ar      1 424    0.0651
    26 O24     -0.5501  -8.8950  12.3657   O.2       1 424   -0.3951
    27 C25     -3.9808 -12.8372  14.2469   C.ar      1 424   -0.0392
    28 C26     -2.3497 -12.8496  12.5196   C.ar      1 424   -0.0392
    29 C27     -1.9524 -14.1178  14.5378   C.ar      1 424    0.0718
    30 C29     -7.2402  -8.4690  15.2463   C.ar      1 424   -0.0364
    31 C30     -3.1733 -13.6736  15.0124   C.ar      1 424   -0.0180
    32 C31     -1.5549 -13.7058  13.2763   C.ar      1 424   -0.0180
    33 C33     -7.0713  -8.7137  17.9821   C.ar      1 424   -0.0460
    34 C34     -8.2440  -9.0982  15.9476   C.ar      1 424   -0.0598
    35 C35     -8.1642  -9.2175  17.3177   C.ar      1 424   -0.0612
    36 H       -3.2369  -8.3189  16.0576   H         1 424    0.0563
    37 H       -3.3822  -7.3989  12.1811   H         1 424    0.0804
    38 H       -3.0233 -10.3290  14.7452   H         1 424    0.0544
    39 H       -4.6915  -9.9256  14.4473   H         1 424    0.0544
    40 H       -1.3471  -7.8638  14.4441   H         1 424    0.0332
    41 H       -2.3111  -6.4831  14.2052   H         1 424    0.0332
    42 H       -6.6968 -10.6692  12.6787   H         1 424    0.0158
    43 H       -6.6743 -11.6452  13.1367   H         1 424    0.0158
    44 H       -5.4768 -12.8776  10.4755   H         1 424    0.0158
    45 H       -5.4999 -11.8831  10.0088   H         1 424    0.0158
    46 H       -2.1009  -6.8295  10.5841   H         1 424    0.1774
    47 H        0.8669  -6.0440  11.5955   H         1 424    0.1090
    48 H        1.9330  -6.2435   8.8219   H         1 424    0.2165
    49 H        0.3119  -9.6568   9.4070   H         1 424    0.0220
    50 H        1.2772  -9.1820   9.2271   H         1 424    0.0220
    51 H       -0.1742  -6.8415   7.6454   H         1 424    0.0220
    52 H       -1.1310  -7.3121   7.8237   H         1 424    0.0220
    53 H       -4.9451 -12.5158  14.6407   H         1 424    0.0846
    54 H       -2.0026 -12.5212  11.5399   H         1 424    0.0846
    55 H       -7.3104  -8.3785  14.1623   H         1 424    0.0636
    56 H       -3.5086 -13.9836  16.0021   H         1 424    0.0704
    57 H       -0.6062 -14.0571  12.8705   H         1 424    0.0704
    58 H       -6.9985  -8.8142  19.0650   H         1 424    0.0624
    59 H       -9.1053  -9.5036  15.4166   H         1 424    0.0620
    60 H       -8.9637  -9.7089  17.8722   H         1 424    0.0618
@<TRIPOS>BOND
     1     6     1    1
     2     1     9    1
     3     1    20    2
     4     1    21    2
     5     7     2   am
     6     2     8    1
     7     2    10    1
     8    25     3    1
     9     4     7    1
    10     4    13    1
    11     4    14    1
    12    19     4    1
    13    29     5    1
    14    10     6    1
    15     6    11    1
    16     7    24    2
    17     8    11    1
    18     8    12    1
    19     9    25   ar
    20     9    30   ar
    21    12    16   am
    22    12    26    2
    23    14    13    1
    24    16    15    1
    25    15    17    1
    26    15    22    1
    27    15    23    1
    28    17    18    2
    29    27    19   ar
    30    19    28   ar
    31    23    22    1
    32    25    33   ar
    33    31    27   ar
    34    28    32   ar
    35    29    31   ar
    36    29    32   ar
    37    30    34   ar
    38    33    35   ar
    39    34    35   ar
    40     6    36    1
    41     8    37    1
    42    10    38    1
    43    10    39    1
    44    11    40    1
    45    11    41    1
    46    13    42    1
    47    13    43    1
    48    14    44    1
    49    14    45    1
    50    16    46    1
    51    17    47    1
    52    18    48    1
    53    22    49    1
    54    22    50    1
    55    23    51    1
    56    23    52    1
    57    27    53    1
    58    28    54    1
    59    30    55    1
    60    31    56    1
    61    32    57    1
    62    33    58    1
    63    34    59    1
    64    35    60    1
@<TRIPOS>SUBSTRUCTURE
     1 424         1 GROUP             0 ****  ****    0  
@<TRIPOS>MOLECULE
2yjc_ligand
    60    64     1     0     0
SMALL
USER_CHARGES
****
Generated from the CSD

@<TRIPOS>ATOM
     1 S1      -4.9144  -7.1103  14.9766   S.o2      1 424    0.0023
     2 N2      -3.3686  -9.4134  13.0191   N.am      1 424   -0.2566
     3 CL2     -4.9609  -7.4922  18.1958   Cl        1 424   -0.0687
     4 C3      -4.3870 -11.5065  12.2819   C.3       1 424    0.0409
     5 CL3     -0.8634 -15.2671  15.3312   Cl        1 424   -0.0415
     6 C4      -3.4886  -8.2184  15.0679   C.3       1 424    0.1066
     7 C5      -3.6911 -10.2155  12.0027   C.2       1 424    0.1702
     8 C6      -2.7017  -8.1435  12.7942   C.3       1 424    0.1342
     9 C7      -6.2067  -7.9457  15.8692   C.ar      1 424    0.1025
    10 C8      -3.7086  -9.6199  14.4387   C.3       1 424    0.0587
    11 C9      -2.3730  -7.5917  14.1955   C.3       1 424    0.0125
    12 C10     -1.4033  -8.2561  12.0509   C.2       1 424    0.1971
    13 C11     -5.8925 -11.4522  12.5423   C.3       1 424   -0.0708
    14 C12     -5.3540 -12.0153  11.2202   C.3       1 424   -0.0708
    15 C13     -0.1132  -7.3291  10.1729   C.3       1 424    0.0783
    16 N14     -1.3167  -7.4510  10.9758   N.am      1 424   -0.2955
    17 C15      0.7856  -6.2473  10.6295   C.2       1 424    0.0437
    18 N16      1.8553  -5.8849   9.9837   N.2       1 424   -0.2686
    19 C17     -3.5445 -12.4761  13.0612   C.ar      1 424   -0.0393
    20 O18     -4.5432  -5.9140  15.6767   O.2       1 424   -0.1690
    21 O19     -5.4084  -7.0801  13.6343   O.2       1 424   -0.1690
    22 C20      0.4719  -8.5844   9.5299   C.3       1 424   -0.0407
    23 C21     -0.2884  -7.5612   8.6659   C.3       1 424   -0.0407
    24 O22     -3.3717  -9.9052  10.8719   O.2       1 424   -0.3658
    25 C23     -6.2107  -8.1199  17.2307   C.ar      1 424    0.0651
    26 O24     -0.4603  -8.9695  12.4281   O.2       1 424   -0.3951
    27 C25     -3.9149 -12.8615  14.3414   C.ar      1 424   -0.0392
    28 C26     -2.3682 -12.9425  12.4933   C.ar      1 424   -0.0392
    29 C27     -1.9186 -14.1848  14.4777   C.ar      1 424    0.0718
    30 C29     -7.2419  -8.4785  15.1434   C.ar      1 424   -0.0364
    31 C30     -3.1078 -13.7410  15.0464   C.ar      1 424   -0.0180
    32 C31     -1.5543 -13.7996  13.1952   C.ar      1 424   -0.0180
    33 C33     -7.2452  -8.7730  17.8858   C.ar      1 424   -0.0460
    34 C34     -8.2713  -9.1382  15.7844   C.ar      1 424   -0.0598
    35 C35     -8.2870  -9.3025  17.1532   C.ar      1 424   -0.0612
    36 H       -3.2700  -8.3377  16.1290   H         1 424    0.0563
    37 H       -3.3584  -7.5162  12.1915   H         1 424    0.0804
    38 H       -3.0972 -10.3906  14.9081   H         1 424    0.0544
    39 H       -4.7258  -9.9861  14.5769   H         1 424    0.0544
    40 H       -1.3691  -7.8495  14.5330   H         1 424    0.0332
    41 H       -2.3592  -6.5025  14.2348   H         1 424    0.0332
    42 H       -6.6404 -10.7374  12.8854   H         1 424    0.0158
    43 H       -6.6004 -11.7282  13.3238   H         1 424    0.0158
    44 H       -5.4886 -12.8953  10.5912   H         1 424    0.0158
    45 H       -5.5288 -11.8993  10.1506   H         1 424    0.0158
    46 H       -2.1345  -6.9010  10.7128   H         1 424    0.1774
    47 H        0.5392  -5.7266  11.5549   H         1 424    0.1090
    48 H        2.1102  -6.3547   9.1150   H         1 424    0.2165
    49 H        0.4833  -9.6608   9.7014   H         1 424    0.0220
    50 H        1.4164  -9.1283   9.5108   H         1 424    0.0220
    51 H       -0.1569  -7.0174   7.7304   H         1 424    0.0220
    52 H       -1.0826  -7.5458   7.9195   H         1 424    0.0220
    53 H       -4.8314 -12.4767  14.7885   H         1 424    0.0846
    54 H       -2.0883 -12.6285  11.4877   H         1 424    0.0846
    55 H       -7.2517  -8.3806  14.0579   H         1 424    0.0636
    56 H       -3.4029 -14.0820  16.0387   H         1 424    0.0704
    57 H       -0.6324 -14.1728  12.7491   H         1 424    0.0704
    58 H       -7.2345  -8.8669  18.9717   H         1 424    0.0624
    59 H       -9.0937  -9.5399  15.1925   H         1 424    0.0620
    60 H       -9.1010  -9.8366  17.6433   H         1 424    0.0618
@<TRIPOS>BOND
     1     6     1    1
     2     1     9    1
     3     1    20    2
     4     1    21    2
     5     7     2   am
     6     2     8    1
     7     2    10    1
     8    25     3    1
     9     4     7    1
    10     4    13    1
    11     4    14    1
    12    19     4    1
    13    29     5    1
    14    10     6    1
    15     6    11    1
    16     7    24    2
    17     8    11    1
    18     8    12    1
    19     9    25   ar
    20     9    30   ar
    21    12    16   am
    22    12    26    2
    23    14    13    1
    24    16    15    1
    25    15    17    1
    26    15    22    1
    27    15    23    1
    28    17    18    2
    29    27    19   ar
    30    19    28   ar
    31    23    22    1
    32    25    33   ar
    33    31    27   ar
    34    28    32   ar
    35    29    31   ar
    36    29    32   ar
    37    30    34   ar
    38    33    35   ar
    39    34    35   ar
    40     6    36    1
    41     8    37    1
    42    10    38    1
    43    10    39    1
    44    11    40    1
    45    11    41    1
    46    13    42    1
    47    13    43    1
    48    14    44    1
    49    14    45    1
    50    16    46    1
    51    17    47    1
    52    18    48    1
    53    22    49    1
    54    22    50    1
    55    23    51    1
    56    23    52    1
    57    27    53    1
    58    28    54    1
    59    30    55    1
    60    31    56    1
    61    32    57    1
    62    33    58    1
    63    34    59    1
    64    35    60    1
@<TRIPOS>SUBSTRUCTURE
     1 424         1 GROUP             0 ****  ****    0  
@<TRIPOS>MOLECULE
3h8c_ligand
   103   106     1     0     0
SMALL
USER_CHARGES
****
Generated from the CSD

@<TRIPOS>ATOM
     1 C1       2.0700  -6.4431   6.0858   C.3       1 NSZ    0.0709
     2 C2       0.8989  -6.6774   6.5842   C.2       1 NSZ    0.1900
     3 O3       0.3654  -7.6686   6.0625   O.2       1 NSZ   -0.3939
     4 C4       3.6660  -2.3990   4.9248   C.ar      1 NSZ   -0.0239
     5 C5       4.4713  -3.3714   5.8298   C.ar      1 NSZ   -0.0596
     6 C6       3.9500  -4.6977   6.2014   C.ar      1 NSZ   -0.0566
     7 C7       2.5701  -5.0960   5.6641   C.ar      1 NSZ   -0.0233
     8 C8       1.7510  -4.1943   4.7769   C.ar      1 NSZ   -0.0566
     9 C9       2.2967  -2.8717   4.4159   C.ar      1 NSZ   -0.0596
    10 C10      5.5142   1.6571   3.9486   C.ar      1 NSZ   -0.0626
    11 C11      5.6257  -0.6786   5.1666   C.ar      1 NSZ   -0.0556
    12 C12      4.2117  -1.0515   4.5636   C.ar      1 NSZ   -0.0219
    13 C13      6.2324   0.6395   4.8526   C.ar      1 NSZ   -0.0622
    14 C14      3.4663  -0.0544   3.6611   C.ar      1 NSZ   -0.0556
    15 C15      4.1379   1.2780   3.3721   C.ar      1 NSZ   -0.0622
    16 N16      0.2312  -6.0041   7.5366   N.am      1 NSZ   -0.2632
    17 C17     -1.0325  -6.4103   7.9467   C.3       1 NSZ    0.1399
    18 C18     -1.2585  -7.6518   8.6888   C.2       1 NSZ    0.2047
    19 O19     -2.3708  -8.2220   8.3319   O.2       1 NSZ   -0.3944
    20 C20     -2.1356  -5.5629   7.5642   C.3       1 NSZ    0.0338
    21 C22     -3.2138  -3.5692   5.7059   C.3       1 NSZ   -0.0179
    22 N29     -0.4539  -8.2636   9.6283   N.am      1 NSZ   -0.2637
    23 C30     -0.7378  -9.4666  10.2298   C.3       1 NSZ    0.1311
    24 C31     -0.5005 -10.8420   9.4666   C.3       1 NSZ   -0.0092
    25 C32     -1.3767 -11.1352   8.0933   C.3       1 NSZ   -0.0156
    26 C33     -2.8469 -11.6240   8.3229   C.3       1 NSZ    0.0627
    27 N34     -3.8378 -11.9294   7.2688   N.pl3     1 NSZ   -0.2723
    28 C35     -4.0174 -11.2520   5.9978   C.cat     1 NSZ    0.2882
    29 N36     -3.2757 -10.1722   5.5171   N.pl3     1 NSZ   -0.2849
    30 N37     -4.9878 -11.6277   5.1079   N.pl3     1 NSZ   -0.2849
    31 C38     -1.2851  -9.4163  11.5962   C.2       1 NSZ    0.2040
    32 O39     -0.7491 -10.3368  12.3962   O.2       1 NSZ   -0.3944
    33 N40     -2.2868  -8.4469  11.8629   N.am      1 NSZ   -0.2619
    34 C41     -2.7779  -8.4855  13.1815   C.3       1 NSZ    0.1403
    35 C42     -3.8085  -9.7033  13.0453   C.2       1 NSZ    0.2039
    36 O43     -4.6369  -9.7377  12.0592   O.2       1 NSZ   -0.3943
    37 C44     -3.5844  -7.3958  13.7496   C.3       1 NSZ    0.0214
    38 C45     -4.3223  -7.5128  14.8953   C.ar      1 NSZ   -0.0386
    39 C46     -3.5849  -7.4204  16.2178   C.ar      1 NSZ   -0.0601
    40 C47     -5.9129  -7.7564  14.9832   C.ar      1 NSZ   -0.0601
    41 C48     -4.3158  -7.5504  17.4344   C.ar      1 NSZ   -0.0686
    42 C49     -6.5625  -7.8715  16.1330   C.ar      1 NSZ   -0.0686
    43 C50     -5.8191  -7.7792  17.4074   C.ar      1 NSZ   -0.0687
    44 C52     -2.9845 -13.6686  13.6252   C.ar      1 NSZ   -0.0411
    45 C53     -2.6989 -14.1223  15.0718   C.ar      1 NSZ   -0.0603
    46 C54     -1.4653 -14.8925  15.3973   C.ar      1 NSZ   -0.0686
    47 C55     -0.4913 -15.2352  14.3113   C.ar      1 NSZ   -0.0687
    48 C56     -0.7651 -14.7926  12.8920   C.ar      1 NSZ   -0.0686
    49 C57     -2.0067 -14.0113  12.5498   C.ar      1 NSZ   -0.0603
    50 C58     -4.2558 -12.8886  13.3034   C.3       1 NSZ    0.0011
    51 C59     -4.6170 -11.8706  14.1015   C.3       1 NSZ    0.0405
    52 N60     -3.7200 -10.7299  14.1369   N.am      1 NSZ   -0.2830
    53 SG2     -2.0368  -3.9741   6.9223   S.3       1 NSZ   -0.1594
    54 H1       2.1387  -7.0755   5.1884   H         1 NSZ    0.0662
    55 H2       2.7865  -6.7988   6.8408   H         1 NSZ    0.0662
    56 H3       5.4438  -3.0652   6.1980   H         1 NSZ    0.0610
    57 H4       4.5216  -5.3687   6.8324   H         1 NSZ    0.0564
    58 H5       0.7808  -4.5109   4.4115   H         1 NSZ    0.0564
    59 H6       1.7164  -2.2175   3.7755   H         1 NSZ    0.0610
    60 H7       5.9660   2.6165   3.7236   H         1 NSZ    0.0610
    61 H8       6.1487  -1.3814   5.8052   H         1 NSZ    0.0615
    62 H9       7.2014   0.8903   5.2686   H         1 NSZ    0.0615
    63 H10      2.4944  -0.2938   3.2451   H         1 NSZ    0.0615
    64 H11      3.6272   1.9902   2.7341   H         1 NSZ    0.0615
    65 H12      0.6501  -5.1989   7.9563   H         1 NSZ    0.1884
    66 H13     -0.9159  -5.8667   8.8959   H         1 NSZ    0.0808
    67 H14     -2.7474  -5.4649   8.4731   H         1 NSZ    0.0424
    68 H15     -2.6897  -6.1406   6.8097   H         1 NSZ    0.0424
    69 H16     -3.0538  -2.5336   5.3713   H         1 NSZ    0.0341
    70 H17     -4.2252  -3.6661   6.1275   H         1 NSZ    0.0341
    71 H18     -3.1063  -4.2518   4.8500   H         1 NSZ    0.0341
    72 H19      0.3930  -7.8003   9.8893   H         1 NSZ    0.1883
    73 H20      0.2847  -9.5214  10.6318   H         1 NSZ    0.0800
    74 H21     -0.7254 -11.6519  10.1761   H         1 NSZ    0.0313
    75 H22      0.5633 -10.8822   9.1895   H         1 NSZ    0.0313
    76 H23     -0.8496 -11.9071   7.5133   H         1 NSZ    0.0301
    77 H24     -1.4168 -10.2025   7.5113   H         1 NSZ    0.0301
    78 H25     -3.3159 -10.8451   8.9420   H         1 NSZ    0.0689
    79 H26     -2.7541 -12.5509   8.9078   H         1 NSZ    0.0689
    80 H27     -4.4757 -12.7153   7.4589   H         1 NSZ    0.2642
    81 H28     -3.4924  -9.7685   4.5947   H         1 NSZ    0.2615
    82 H29     -2.5114  -9.7790   6.0847   H         1 NSZ    0.2615
    83 H30     -5.6142 -12.4145   5.3306   H         1 NSZ    0.2615
    84 H31     -5.0914 -11.1236   4.2157   H         1 NSZ    0.2615
    85 H32     -2.6136  -7.7964  11.1773   H         1 NSZ    0.1885
    86 H33     -1.9474  -8.6979  13.8708   H         1 NSZ    0.0823
    87 H34     -4.2976  -7.1097  12.9624   H         1 NSZ    0.0474
    88 H35     -2.8837  -6.5669  13.9284   H         1 NSZ    0.0474
    89 H36     -2.5134  -7.2571  16.2374   H         1 NSZ    0.0557
    90 H37     -6.4770  -7.8293  14.0604   H         1 NSZ    0.0557
    91 H38     -3.7973  -7.4859  18.3842   H         1 NSZ    0.0599
    92 H39     -7.6344  -8.0327  16.1386   H         1 NSZ    0.0599
    93 H40     -6.3573  -7.8768  18.3433   H         1 NSZ    0.0559
    94 H41     -3.4026 -13.8784  15.8595   H         1 NSZ    0.0557
    95 H42     -1.2730 -15.2042  16.4175   H         1 NSZ    0.0599
    96 H43      0.4058 -15.7980  14.5426   H         1 NSZ    0.0559
    97 H44     -0.0577 -15.0411  12.1091   H         1 NSZ    0.0599
    98 H45     -2.1895 -13.6993  11.5279   H         1 NSZ    0.0557
    99 H46     -5.0858 -13.6104  13.3069   H         1 NSZ    0.0446
   100 H47     -4.1327 -12.4760  12.2912   H         1 NSZ    0.0446
   101 H48     -4.7016 -12.2619  15.1260   H         1 NSZ    0.0542
   102 H49     -5.6006 -11.5126  13.7632   H         1 NSZ    0.0542
   103 H50     -3.0540 -10.6297  14.8761   H         1 NSZ    0.1853
@<TRIPOS>BOND
     1     2     1    1
     2     1     7    1
     3     2     3    2
     4    16     2   am
     5     5     4   ar
     6     9     4   ar
     7     4    12    1
     8     6     5   ar
     9     7     6   ar
    10     7     8   ar
    11     8     9   ar
    12    13    10   ar
    13    15    10   ar
    14    12    11   ar
    15    11    13   ar
    16    12    14   ar
    17    14    15   ar
    18    17    16    1
    19    18    17    1
    20    17    20    1
    21    18    19    2
    22    22    18   am
    23    20    53    1
    24    53    21    1
    25    23    22    1
    26    23    24    1
    27    31    23    1
    28    24    25    1
    29    25    26    1
    30    26    27    1
    31    27    28   ar
    32    28    29   ar
    33    28    30   ar
    34    31    32    2
    35    33    31   am
    36    34    33    1
    37    35    34    1
    38    34    37    1
    39    35    36    2
    40    52    35   am
    41    37    38    1
    42    38    39   ar
    43    38    40   ar
    44    39    41   ar
    45    40    42   ar
    46    41    43   ar
    47    42    43   ar
    48    44    45   ar
    49    44    49   ar
    50    50    44    1
    51    45    46   ar
    52    46    47   ar
    53    48    47   ar
    54    49    48   ar
    55    51    50    1
    56    51    52    1
    57     1    54    1
    58     1    55    1
    59     5    56    1
    60     6    57    1
    61     8    58    1
    62     9    59    1
    63    10    60    1
    64    11    61    1
    65    13    62    1
    66    14    63    1
    67    15    64    1
    68    16    65    1
    69    17    66    1
    70    20    67    1
    71    20    68    1
    72    21    69    1
    73    21    70    1
    74    21    71    1
    75    22    72    1
    76    23    73    1
    77    24    74    1
    78    24    75    1
    79    25    76    1
    80    25    77    1
    81    26    78    1
    82    26    79    1
    83    27    80    1
    84    29    81    1
    85    29    82    1
    86    30    83    1
    87    30    84    1
    88    33    85    1
    89    34    86    1
    90    37    87    1
    91    37    88    1
    92    39    89    1
    93    40    90    1
    94    41    91    1
    95    42    92    1
    96    43    93    1
    97    45    94    1
    98    46    95    1
    99    47    96    1
   100    48    97    1
   101    49    98    1
   102    50    99    1
   103    50   100    1
   104    51   101    1
   105    51   102    1
   106    52   103    1
@<TRIPOS>SUBSTRUCTURE
     1 NSZ         1 GROUP             0 ****  ****    0  
@<TRIPOS>MOLECULE
4axm_ligand
    56    59     1     0     0
SMALL
USER_CHARGES
****
Generated from the CSD

@<TRIPOS>ATOM
     1 C1       0.4129  -6.6256  10.8166   C.2       1 V65    0.0629
     2 N2       1.4210  -6.1724  10.0917   N.2       1 V65   -0.3220
     3 C4      -0.3466  -7.8464  10.4475   C.ar      1 V65    0.1398
     4 N5      -1.3333  -8.2315  11.2684   N.ar      1 V65   -0.2284
     5 C6      -2.0677  -9.2992  10.9641   C.ar      1 V65    0.1969
     6 N10     -3.0810  -9.6042  11.8788   N.pl3     1 V65   -0.2573
     7 C14     -3.2559  -8.7890  13.0940   C.3       1 V65    0.0491
     8 C15     -4.6488  -8.9982  13.6815   C.3       1 V65   -0.0288
     9 C16     -4.6582  -8.4156  15.1031   C.3       1 V65   -0.0509
    10 C17     -4.3938  -6.9163  15.0220   C.3       1 V65   -0.0529
    11 C18     -3.0935  -6.6675  14.2530   C.3       1 V65   -0.0509
    12 C19     -3.1438  -7.2951  12.8613   C.3       1 V65   -0.0288
    13 C12     -3.9794 -10.7689  11.7310   C.3       1 V65    0.0698
    14 C22     -3.3322 -11.8225  12.5788   C.ar      1 V65   -0.0197
    15 C23     -3.5350 -11.8396  13.9526   C.ar      1 V65   -0.0577
    16 C24     -2.9071 -12.8009  14.7248   C.ar      1 V65   -0.0545
    17 C25     -2.0682 -13.7415  14.1166   C.ar      1 V65    0.0330
    18 CL      -1.2516 -14.9583  15.0869   Cl        1 V65   -0.0771
    19 C26     -1.8609 -13.7253  12.7387   C.ar      1 V65   -0.0545
    20 C27     -2.4950 -12.7576  11.9773   C.ar      1 V65   -0.0577
    21 N7      -1.8563 -10.0151   9.8539   N.ar      1 V65   -0.2116
    22 C8      -0.8615  -9.6009   9.0552   C.ar      1 V65    0.1949
    23 N29     -0.5748 -10.3033   7.8789   N.pl3     1 V65   -0.2673
    24 C30      0.5220  -9.8422   6.9940   C.3       1 V65    0.0592
    25 C31      1.2622 -11.0304   6.3606   C.3       1 V65    0.0687
    26 O32      0.3330 -11.9239   5.7380   O.3       1 V65   -0.3756
    27 C33     -0.5491 -12.5302   6.6841   C.3       1 V65    0.0687
    28 C34     -1.3597 -11.5001   7.4921   C.3       1 V65    0.0592
    29 N9      -0.0975  -8.5289   9.3245   N.ar      1 V65   -0.2285
    30 H1       0.1292  -6.0837  11.7176   H         1 V65    0.1182
    31 H2       1.9118  -5.3392  10.3762   H         1 V65    0.1465
    32 H3      -2.4928  -9.0972  13.8237   H         1 V65    0.0569
    33 H4      -4.8811 -10.0727  13.7172   H         1 V65    0.0288
    34 H5      -5.3966  -8.4816  13.0618   H         1 V65    0.0288
    35 H6      -3.8735  -8.8972  15.7051   H         1 V65    0.0266
    36 H7      -5.6387  -8.5933  15.5689   H         1 V65    0.0266
    37 H8      -4.3033  -6.5045  16.0380   H         1 V65    0.0265
    38 H9      -5.2280  -6.4247  14.5000   H         1 V65    0.0265
    39 H10     -2.2555  -7.1067  14.8142   H         1 V65    0.0266
    40 H11     -2.9387  -5.5832  14.1518   H         1 V65    0.0266
    41 H12     -4.0180  -6.9261  12.3048   H         1 V65    0.0288
    42 H13     -2.2268  -7.0611  12.3008   H         1 V65    0.0288
    43 H14     -4.0364 -11.0902  10.6805   H         1 V65    0.0696
    44 H15     -4.9895 -10.5349  12.0982   H         1 V65    0.0696
    45 H16     -4.1815 -11.1040  14.4173   H         1 V65    0.0558
    46 H17     -3.0645 -12.8254  15.7970   H         1 V65    0.0606
    47 H18     -1.2138 -14.4581  12.2704   H         1 V65    0.0606
    48 H19     -2.3382 -12.7284  10.9051   H         1 V65    0.0558
    49 H20      1.2352  -9.2495   7.5856   H         1 V65    0.0554
    50 H21      0.0990  -9.2160   6.1947   H         1 V65    0.0554
    51 H22      1.8158 -11.5708   7.1426   H         1 V65    0.0581
    52 H23      1.9674 -10.6562   5.6040   H         1 V65    0.0581
    53 H24      0.0476 -13.1341   7.3835   H         1 V65    0.0581
    54 H25     -1.2503 -13.1822   6.1427   H         1 V65    0.0581
    55 H26     -2.2147 -11.1737   6.8819   H         1 V65    0.0554
    56 H27     -1.7270 -11.9867   8.4077   H         1 V65    0.0554
@<TRIPOS>BOND
     1     1     2    2
     2     1     3    1
     3     3     4   ar
     4     3    29   ar
     5     4     5   ar
     6     5     6    1
     7     5    21   ar
     8     6     7    1
     9     6    13    1
    10     7     8    1
    11     7    12    1
    12     8     9    1
    13     9    10    1
    14    10    11    1
    15    11    12    1
    16    13    14    1
    17    14    15   ar
    18    14    20   ar
    19    15    16   ar
    20    16    17   ar
    21    17    18    1
    22    17    19   ar
    23    19    20   ar
    24    21    22   ar
    25    22    23    1
    26    22    29   ar
    27    23    24    1
    28    23    28    1
    29    24    25    1
    30    25    26    1
    31    26    27    1
    32    27    28    1
    33     1    30    1
    34     2    31    1
    35     7    32    1
    36     8    33    1
    37     8    34    1
    38     9    35    1
    39     9    36    1
    40    10    37    1
    41    10    38    1
    42    11    39    1
    43    11    40    1
    44    12    41    1
    45    12    42    1
    46    13    43    1
    47    13    44    1
    48    15    45    1
    49    16    46    1
    50    19    47    1
    51    20    48    1
    52    24    49    1
    53    24    50    1
    54    25    51    1
    55    25    52    1
    56    27    53    1
    57    27    54    1
    58    28    55    1
    59    28    56    1
@<TRIPOS>SUBSTRUCTURE
     1 V65         1 GROUP             0 ****  ****    0  
@<TRIPOS>MOLECULE
3hha_ligand
    57    58     1     0     0
SMALL
USER_CHARGES
****
Generated from the CSD

@<TRIPOS>ATOM
     1 O18     -4.7172 -10.5466  12.3999   O.2       1 NOW   -0.3812
     2 C17     -3.8640 -10.8279  13.2210   C.2       1 NOW    0.2402
     3 C19     -3.8941 -12.1188  13.9004   C.2       1 NOW    0.1801
     4 N23     -4.9947 -12.7301  14.3599   N.pl3     1 NOW   -0.1563
     5 C24     -6.3632 -12.1965  14.3334   C.3       1 NOW    0.0743
     6 N22     -4.7262 -13.8455  14.8834   N.2       1 NOW   -0.1461
     7 C21     -3.4065 -14.0546  14.7844   C.2       1 NOW    0.0357
     8 C25     -2.7617 -15.3097  15.3007   C.3       1 NOW   -0.0318
     9 C28     -1.3768 -14.9426  15.7933   C.3       1 NOW   -0.0806
    10 C27     -3.5408 -15.8770  16.5052   C.3       1 NOW   -0.0806
    11 C26     -2.7768 -16.3287  14.1559   C.3       1 NOW   -0.0806
    12 C20     -2.8429 -12.9596  14.1506   C.2       1 NOW   -0.0090
    13 N16     -2.8574  -9.9574  13.5133   N.am      1 NOW   -0.2607
    14 C9      -2.7375  -8.6433  12.8762   C.3       1 NOW    0.1400
    15 C10     -1.3910  -8.5793  12.2073   C.2       1 NOW    0.2066
    16 N12     -1.2926  -7.7611  11.1426   N.am      1 NOW   -0.2650
    17 C13     -0.0750  -7.5893  10.3618   C.3       1 NOW    0.0897
    18 C14      0.6146  -6.2982  10.6232   C.2       1 NOW    0.0176
    19 N15      1.6435  -5.9191   9.9198   N.2       1 NOW   -0.3621
    20 O11     -0.4268  -9.2096  12.5952   O.2       1 NOW   -0.3941
    21 C8      -2.8591  -7.5408  13.9233   C.3       1 NOW    0.0198
    22 C5      -4.1382  -7.6583  14.7458   C.ar      1 NOW   -0.0454
    23 C3      -5.3845  -7.8647  14.1247   C.ar      1 NOW   -0.0670
    24 C1      -6.5295  -8.0279  14.8815   C.ar      1 NOW   -0.0752
    25 C6      -4.0564  -7.5822  16.1085   C.ar      1 NOW   -0.0592
    26 C4      -5.2052  -7.7089  16.8778   C.ar      1 NOW   -0.0529
    27 C7      -5.0967  -7.5926  18.3788   C.3       1 NOW   -0.0327
    28 C2      -6.4348  -7.9395  16.2557   C.ar      1 NOW   -0.0675
    29 H1      -7.0509 -12.9284  14.7823   H         1 NOW    0.0637
    30 H2      -6.6616 -12.0038  13.2923   H         1 NOW    0.0637
    31 H3      -6.4021 -11.2580  14.9057   H         1 NOW    0.0637
    32 H4      -0.8748 -15.8420  16.1796   H         1 NOW    0.0147
    33 H5      -1.4592 -14.1953  16.5963   H         1 NOW    0.0147
    34 H6      -0.7907 -14.5243  14.9618   H         1 NOW    0.0147
    35 H7      -4.5559 -16.1564  16.1866   H         1 NOW    0.0147
    36 H8      -3.6015 -15.1138  17.2950   H         1 NOW    0.0147
    37 H9      -3.0206 -16.7654  16.8928   H         1 NOW    0.0147
    38 H10     -2.2212 -15.9237  13.2972   H         1 NOW    0.0147
    39 H11     -3.8163 -16.5301  13.8580   H         1 NOW    0.0147
    40 H12     -2.3036 -17.2635  14.4909   H         1 NOW    0.0147
    41 H13     -1.7936 -12.8019  13.9051   H         1 NOW    0.0542
    42 H14     -2.1723 -10.2264  14.1902   H         1 NOW    0.1877
    43 H15     -3.5317  -8.5200  12.1253   H         1 NOW    0.0823
    44 H16     -2.1028  -7.2410  10.8721   H         1 NOW    0.1894
    45 H17     -0.3355  -7.6359   9.2940   H         1 NOW    0.0803
    46 H18      0.6155  -8.4096  10.6069   H         1 NOW    0.0803
    47 H19      0.2508  -5.6539  11.4221   H         1 NOW    0.1222
    48 H20      2.0927  -5.0387  10.1179   H         1 NOW    0.1054
    49 H21     -2.8560  -6.5666  13.4124   H         1 NOW    0.0473
    50 H22     -1.9958  -7.6017  14.6022   H         1 NOW    0.0473
    51 H23     -5.4469  -7.8959  13.0430   H         1 NOW    0.0499
    52 H24     -7.4837  -8.2217  14.4050   H         1 NOW    0.0582
    53 H25     -3.0968  -7.4232  16.5871   H         1 NOW    0.0494
    54 H26     -6.0926  -7.7169  18.8291   H         1 NOW    0.0390
    55 H27     -4.6962  -6.6025  18.6419   H         1 NOW    0.0390
    56 H28     -4.4222  -8.3738  18.7592   H         1 NOW    0.0390
    57 H29     -7.3272  -8.0507  16.8610   H         1 NOW    0.0499
@<TRIPOS>BOND
     1     1     2    2
     2     2     3    1
     3     2    13   am
     4     3     4    1
     5     3    12    2
     6     4     5    1
     7     4     6    1
     8     6     7    2
     9     7     8    1
    10     7    12    1
    11     8     9    1
    12     8    10    1
    13     8    11    1
    14    13    14    1
    15    14    15    1
    16    14    21    1
    17    15    16   am
    18    15    20    2
    19    16    17    1
    20    17    18    1
    21    18    19    2
    22    21    22    1
    23    22    23   ar
    24    22    25   ar
    25    23    24   ar
    26    24    28   ar
    27    25    26   ar
    28    26    27    1
    29    26    28   ar
    30     5    29    1
    31     5    30    1
    32     5    31    1
    33     9    32    1
    34     9    33    1
    35     9    34    1
    36    10    35    1
    37    10    36    1
    38    10    37    1
    39    11    38    1
    40    11    39    1
    41    11    40    1
    42    12    41    1
    43    13    42    1
    44    14    43    1
    45    16    44    1
    46    17    45    1
    47    17    46    1
    48    18    47    1
    49    19    48    1
    50    21    49    1
    51    21    50    1
    52    23    51    1
    53    24    52    1
    54    25    53    1
    55    27    54    1
    56    27    55    1
    57    27    56    1
    58    28    57    1
@<TRIPOS>SUBSTRUCTURE
     1 NOW         1 GROUP             0 ****  ****    0  
@<TRIPOS>MOLECULE
2yj2_ligand
    60    64     1     0     0
SMALL
USER_CHARGES
****
Generated from the CSD

@<TRIPOS>ATOM
     1 C1      -2.7219  -8.0291  12.8487   C.3       1 YJ2    0.1342
     2 N2      -3.4577  -9.2685  13.0485   N.am      1 YJ2   -0.2562
     3 C3      -3.8297  -9.4989  14.4414   C.3       1 YJ2    0.0587
     4 C4      -3.5626  -8.1279  15.0943   C.3       1 YJ2    0.1066
     5 C5      -2.4175  -7.5390  14.2643   C.3       1 YJ2    0.0125
     6 C6      -1.4155  -8.1871  12.0621   C.2       1 YJ2    0.1971
     7 O7      -0.5145  -8.9392  12.4653   O.2       1 YJ2   -0.3951
     8 S8      -4.9374  -7.0296  15.0562   S.o2      1 YJ2    0.0023
     9 C9      -6.1400  -7.8633  15.9559   C.ar      1 YJ2    0.1025
    10 C10     -6.1501  -8.0820  17.3362   C.ar      1 YJ2    0.0651
    11 C11     -7.1830  -8.7832  17.9683   C.ar      1 YJ2   -0.0460
    12 C12     -8.2189  -9.3117  17.2104   C.ar      1 YJ2   -0.0612
    13 C13     -8.2266  -9.1218  15.8360   C.ar      1 YJ2   -0.0598
    14 C14     -7.2044  -8.4048  15.2270   C.ar      1 YJ2   -0.0364
    15 CL1     -4.9220  -7.4521  18.3118   Cl        1 YJ2   -0.0687
    16 N16     -1.3421  -7.4252  10.9460   N.am      1 YJ2   -0.2955
    17 C17     -0.1833  -7.2865  10.1499   C.3       1 YJ2    0.0783
    18 C18      0.7602  -6.2545  10.5949   C.2       1 YJ2    0.0437
    19 C19      0.3558  -8.5786   9.4946   C.3       1 YJ2   -0.0407
    20 C20     -0.3781  -7.5828   8.6584   C.3       1 YJ2   -0.0407
    21 C21     -3.9791  -9.9538  11.9842   C.2       1 YJ2    0.1723
    22 O22     -3.7991  -9.4829  10.8533   O.2       1 YJ2   -0.3648
    23 C23     -4.7303 -11.2343  12.2555   C.3       1 YJ2    0.0436
    24 C24     -3.9148 -12.2070  13.0332   C.ar      1 YJ2   -0.0361
    25 C25     -2.6746 -12.6151  12.5451   C.ar      1 YJ2   -0.0374
    26 C26     -1.8866 -13.5023  13.2549   C.ar      1 YJ2   -0.0234
    27 C27     -2.3157 -13.9671  14.5020   C.ar      1 YJ2    0.0420
    28 C28     -3.5315 -13.5448  15.0098   C.ar      1 YJ2   -0.0234
    29 C29     -4.3287 -12.6606  14.2936   C.ar      1 YJ2   -0.0374
    30 BR3     -1.1412 -15.1426  15.5111   Br        1 YJ2   -0.0232
    31 C31     -6.2318 -11.0736  12.4651   C.3       1 YJ2   -0.0691
    32 C32     -5.7068 -11.6855  11.2034   C.3       1 YJ2   -0.0691
    33 O33     -4.5301  -5.8196  15.7089   O.2       1 YJ2   -0.1690
    34 O34     -5.3875  -6.9319  13.7141   O.2       1 YJ2   -0.1690
    35 N35      1.8172  -5.8985   9.9657   N.2       1 YJ2   -0.2686
    36 H       -3.3157  -7.3388  12.2497   H         1 YJ2    0.0804
    37 H       -3.2645 -10.3078  14.9043   H         1 YJ2    0.0544
    38 H       -4.8613  -9.8312  14.5568   H         1 YJ2    0.0544
    39 H       -3.3405  -8.2558  16.1538   H         1 YJ2    0.0563
    40 H       -2.3668  -6.4522  14.3304   H         1 YJ2    0.0332
    41 H       -1.4365  -7.8573  14.6170   H         1 YJ2    0.0332
    42 H       -7.1741  -8.9137  19.0504   H         1 YJ2    0.0624
    43 H       -9.0206  -9.8718  17.6915   H         1 YJ2    0.0618
    44 H       -9.0354  -9.5356  15.2336   H         1 YJ2    0.0620
    45 H       -7.2324  -8.2596  14.1471   H         1 YJ2    0.0636
    46 H       -2.1793  -6.9172  10.6606   H         1 YJ2    0.1774
    47 H        0.5439  -5.7503  11.5368   H         1 YJ2    0.1090
    48 H        0.3399  -9.6524   9.6813   H         1 YJ2    0.0220
    49 H        1.2877  -9.1429   9.4563   H         1 YJ2    0.0220
    50 H       -0.2352  -7.0667   7.7090   H         1 YJ2    0.0220
    51 H       -1.1950  -7.5827   7.9370   H         1 YJ2    0.0220
    52 H       -2.3207 -12.2290  11.5892   H         1 YJ2    0.0852
    53 H       -0.9345 -13.8381  12.8438   H         1 YJ2    0.0720
    54 H       -3.8670 -13.9091  15.9808   H         1 YJ2    0.0720
    55 H       -5.2759 -12.3196  14.7115   H         1 YJ2    0.0852
    56 H       -6.9392 -10.3022  12.7696   H         1 YJ2    0.0162
    57 H       -6.9802 -11.2847  13.2290   H         1 YJ2    0.0162
    58 H       -5.8903 -12.5728  10.5974   H         1 YJ2    0.0162
    59 H       -5.8485 -11.5705  10.1288   H         1 YJ2    0.0162
    60 H        2.0581  -6.3440   9.0803   H         1 YJ2    0.2165
@<TRIPOS>BOND
     1     1     2    1
     2     1     5    1
     3     1     6    1
     4     2     3    1
     5     2    21   am
     6     3     4    1
     7     4     5    1
     8     4     8    1
     9     6     7    2
    10     6    16   am
    11     8     9    1
    12     8    33    2
    13     8    34    2
    14     9    10   ar
    15     9    14   ar
    16    10    11   ar
    17    10    15    1
    18    11    12   ar
    19    12    13   ar
    20    13    14   ar
    21    16    17    1
    22    17    18    1
    23    17    19    1
    24    17    20    1
    25    18    35    2
    26    19    20    1
    27    21    22    2
    28    21    23    1
    29    23    24    1
    30    23    31    1
    31    23    32    1
    32    24    25   ar
    33    24    29   ar
    34    25    26   ar
    35    26    27   ar
    36    27    28   ar
    37    27    30    1
    38    28    29   ar
    39    31    32    1
    40     1    36    1
    41     3    37    1
    42     3    38    1
    43     4    39    1
    44     5    40    1
    45     5    41    1
    46    11    42    1
    47    12    43    1
    48    13    44    1
    49    14    45    1
    50    16    46    1
    51    18    47    1
    52    19    48    1
    53    19    49    1
    54    20    50    1
    55    20    51    1
    56    25    52    1
    57    26    53    1
    58    28    54    1
    59    29    55    1
    60    31    56    1
    61    31    57    1
    62    32    58    1
    63    32    59    1
    64    35    60    1
@<TRIPOS>SUBSTRUCTURE
     1 YJ2         1 GROUP             0 ****  ****    0  
@<TRIPOS>MOLECULE
2yj8_ligand
    60    64     1     0     0
SMALL
USER_CHARGES
****
Generated from the CSD

@<TRIPOS>ATOM
     1 C1      -2.6849  -8.0922  12.7777   C.3       1 YJ8    0.1343
     2 N2      -3.4079  -9.3159  12.9928   N.am      1 YJ8   -0.2562
     3 C3      -3.6807  -9.5146  14.4010   C.3       1 YJ8    0.0588
     4 C4      -3.4803  -8.1262  15.0642   C.3       1 YJ8    0.1066
     5 C5      -2.3664  -7.5790  14.1988   C.3       1 YJ8    0.0125
     6 C6      -1.3703  -8.2835  12.0151   C.2       1 YJ8    0.1971
     7 O7      -0.4471  -9.0295  12.4256   O.2       1 YJ8   -0.3951
     8 S8      -4.8496  -7.0479  15.0387   S.o2      1 YJ8    0.0023
     9 C9      -6.0341  -7.8401  15.9524   C.ar      1 YJ8    0.1025
    10 C10     -5.9977  -8.0576  17.3050   C.ar      1 YJ8    0.0651
    11 C11     -7.0005  -8.7248  17.9941   C.ar      1 YJ8   -0.0460
    12 C12     -8.1025  -9.2366  17.3236   C.ar      1 YJ8   -0.0612
    13 C13     -8.1770  -9.0538  15.9455   C.ar      1 YJ8   -0.0598
    14 C14     -7.1595  -8.3699  15.2881   C.ar      1 YJ8   -0.0364
    15 CL      -4.7471  -7.4905  18.2413   Cl        1 YJ8   -0.0687
    16 N16     -1.3167  -7.4920  10.9056   N.am      1 YJ8   -0.2955
    17 C17     -0.1604  -7.3263  10.1313   C.3       1 YJ8    0.0783
    18 C18      0.7462  -6.2581  10.5858   C.2       1 YJ8    0.0437
    19 C19      0.4326  -8.5897   9.5078   C.3       1 YJ8   -0.0407
    20 C20     -0.2327  -7.5866   8.6293   C.3       1 YJ8   -0.0407
    21 C21     -3.9657  -9.9990  11.9361   C.2       1 YJ8    0.1727
    22 O22     -3.7165  -9.5371  10.7916   O.2       1 YJ8   -0.3646
    23 C23     -4.7238 -11.2775  12.1859   C.3       1 YJ8    0.0440
    24 C24     -3.9226 -12.2410  12.9491   C.ar      1 YJ8   -0.0357
    25 C25     -2.6444 -12.6145  12.4766   C.ar      1 YJ8   -0.0369
    26 C26     -1.8941 -13.4993  13.2196   C.ar      1 YJ8   -0.0220
    27 C27     -2.3736 -13.9691  14.4308   C.ar      1 YJ8    0.0373
    28 C28     -3.6063 -13.5866  14.9285   C.ar      1 YJ8   -0.0220
    29 C29     -4.3923 -12.7056  14.1919   C.ar      1 YJ8   -0.0369
    30 I30     -1.1516 -15.2660  15.5221   I         1 YJ8   -0.0256
    31 C31     -6.2036 -11.1030  12.4189   C.3       1 YJ8   -0.0688
    32 C32     -5.7028 -11.7587  11.1626   C.3       1 YJ8   -0.0688
    33 O33     -4.4021  -5.8427  15.6687   O.2       1 YJ8   -0.1690
    34 O34     -5.3127  -6.9006  13.7137   O.2       1 YJ8   -0.1690
    35 N35      1.7965  -5.9051   9.9236   N.2       1 YJ8   -0.2686
    36 H       -3.2802  -7.4097  12.1712   H         1 YJ8    0.0804
    37 H       -3.0167 -10.2628  14.8340   H         1 YJ8    0.0544
    38 H       -4.6907  -9.8914  14.5621   H         1 YJ8    0.0544
    39 H       -3.2920  -8.2165  16.1340   H         1 YJ8    0.0563
    40 H       -2.3195  -6.4907  14.2369   H         1 YJ8    0.0332
    41 H       -1.3859  -7.9108  14.5405   H         1 YJ8    0.0332
    42 H       -6.9217  -8.8482  19.0742   H         1 YJ8    0.0624
    43 H       -8.8882  -9.7674  17.8612   H         1 YJ8    0.0618
    44 H       -9.0269  -9.4438  15.3855   H         1 YJ8    0.0620
    45 H       -7.2357  -8.2373  14.2089   H         1 YJ8    0.0636
    46 H       -2.1620  -6.9950  10.6249   H         1 YJ8    0.1774
    47 H        0.5207  -5.7442  11.5202   H         1 YJ8    0.1090
    48 H        0.4061  -9.6665   9.6750   H         1 YJ8    0.0220
    49 H        1.3685  -9.1476   9.5387   H         1 YJ8    0.0220
    50 H       -0.0196  -7.0526   7.7033   H         1 YJ8    0.0220
    51 H       -0.9842  -7.5727   7.8398   H         1 YJ8    0.0220
    52 H       -2.2589 -12.2097  11.5408   H         1 YJ8    0.0853
    53 H       -0.9220 -13.8299  12.8538   H         1 YJ8    0.0723
    54 H       -3.9578 -13.9707  15.8861   H         1 YJ8    0.0723
    55 H       -5.3600 -12.3794  14.5727   H         1 YJ8    0.0853
    56 H       -6.9016 -10.3194  12.7141   H         1 YJ8    0.0163
    57 H       -6.9384 -11.2848  13.2032   H         1 YJ8    0.0163
    58 H       -5.8966 -12.6605  10.5819   H         1 YJ8    0.0163
    59 H       -5.8593 -11.6830  10.0865   H         1 YJ8    0.0163
    60 H        2.0273  -6.3719   9.0467   H         1 YJ8    0.2165
@<TRIPOS>BOND
     1     1     2    1
     2     1     5    1
     3     1     6    1
     4     2     3    1
     5     2    21   am
     6     3     4    1
     7     4     5    1
     8     4     8    1
     9     6     7    2
    10     6    16   am
    11     8     9    1
    12     8    33    2
    13     8    34    2
    14     9    10   ar
    15     9    14   ar
    16    10    11   ar
    17    10    15    1
    18    11    12   ar
    19    12    13   ar
    20    13    14   ar
    21    16    17    1
    22    17    18    1
    23    17    19    1
    24    17    20    1
    25    18    35    2
    26    19    20    1
    27    21    22    2
    28    21    23    1
    29    23    24    1
    30    23    31    1
    31    23    32    1
    32    24    25   ar
    33    24    29   ar
    34    25    26   ar
    35    26    27   ar
    36    27    28   ar
    37    27    30    1
    38    28    29   ar
    39    31    32    1
    40     1    36    1
    41     3    37    1
    42     3    38    1
    43     4    39    1
    44     5    40    1
    45     5    41    1
    46    11    42    1
    47    12    43    1
    48    13    44    1
    49    14    45    1
    50    16    46    1
    51    18    47    1
    52    19    48    1
    53    19    49    1
    54    20    50    1
    55    20    51    1
    56    25    52    1
    57    26    53    1
    58    28    54    1
    59    29    55    1
    60    31    56    1
    61    31    57    1
    62    32    58    1
    63    32    59    1
    64    35    60    1
@<TRIPOS>SUBSTRUCTURE
     1 YJ8         1 GROUP             0 ****  ****    0  
@<TRIPOS>MOLECULE
3hwn_ligand
    65    67     1     0     0
SMALL
USER_CHARGES
****
Generated from the CSD

@<TRIPOS>ATOM
     1 C1      -3.8721  -7.6555  14.9539   C.ar      1 BD3   -0.0356
     2 C2      -5.1559  -7.6303  14.4068   C.ar      1 BD3   -0.0579
     3 C3      -3.7058  -7.8356  16.3294   C.ar      1 BD3   -0.0446
     4 C4      -6.2748  -7.7706  15.2174   C.ar      1 BD3   -0.0652
     5 C5      -4.8308  -7.9735  17.1437   C.ar      1 BD3    0.0350
     6 C6      -6.1179  -7.9393  16.5832   C.ar      1 BD3   -0.0527
     7 C7      -4.7374  -8.1938  18.5904   C.2       1 BD3    0.2162
     8 C12     -6.5549  -9.1485  21.3036   C.3       1 BD3    0.0581
     9 N13     -6.7001  -8.4073  22.5660   N.4       1 BD3    0.2385
    10 C15     -2.6338  -8.5730  12.9224   C.3       1 BD3    0.1401
    11 C17     -3.7831 -10.7679  13.0959   C.2       1 BD3    0.2402
    12 C18     -3.7812 -12.1526  13.6389   C.2       1 BD3    0.1801
    13 N22     -1.1486  -7.5437  11.2288   N.am      1 BD3   -0.2650
    14 C23      0.0409  -7.3441  10.3976   C.3       1 BD3    0.0897
    15 C24      0.6589  -5.9691  10.7089   C.2       1 BD3    0.0176
    16 C30     -6.2417 -12.6453  13.5081   C.3       1 BD3    0.0743
    17 C31     -2.3288 -15.2425  15.0621   C.3       1 BD3   -0.0318
    18 C32     -0.8499 -14.9332  15.3493   C.3       1 BD3   -0.0806
    19 C33     -2.4175 -16.3995  14.0680   C.3       1 BD3   -0.0806
    20 C34     -2.9863 -15.7166  16.3610   C.3       1 BD3   -0.0806
    21 N25      1.3904  -5.4190   9.7647   N.2       1 BD3   -0.3621
    22 C20     -1.3293  -8.5396  12.1642   C.2       1 BD3    0.2066
    23 O21     -0.4791  -9.3822  12.3742   O.2       1 BD3   -0.3941
    24 N16     -2.7424  -9.9480  13.4099   N.am      1 BD3   -0.2607
    25 O19     -4.6712 -10.3327  12.3933   O.2       1 BD3   -0.3812
    26 C29     -2.6724 -12.8437  14.0730   C.2       1 BD3   -0.0090
    27 C28     -3.1299 -14.0632  14.5091   C.2       1 BD3    0.0357
    28 N27     -4.4742 -14.0797  14.3207   N.2       1 BD3   -0.1461
    29 N26     -4.8435 -12.9728  13.8311   N.pl3     1 BD3   -0.1563
    30 C14     -2.6511  -7.5172  14.0512   C.3       1 BD3    0.0218
    31 O11     -5.7250  -8.5338  19.1810   O.3       1 BD3   -0.1854
    32 C10     -5.4566  -8.6907  20.3466   C.2       1 BD3    0.2456
    33 N9      -4.1464  -8.4199  20.5644   N.2       1 BD3   -0.2427
    34 N8      -3.6794  -8.1133  19.4237   N.2       1 BD3   -0.2459
    35 H1      -5.2810  -7.4998  13.3380   H         1 BD3    0.0576
    36 H2      -2.7116  -7.8679  16.7603   H         1 BD3    0.0583
    37 H3      -7.2676  -7.7482  14.7827   H         1 BD3    0.0606
    38 H4      -6.9890  -8.0449  17.2198   H         1 BD3    0.0591
    39 H5      -7.5123  -9.0776  20.7665   H         1 BD3    0.1094
    40 H6      -6.3545 -10.1996  21.5585   H         1 BD3    0.1094
    41 H7      -7.4538  -8.8050  23.1044   H         1 BD3    0.2015
    42 H8      -6.9036  -7.4404  22.3665   H         1 BD3    0.2015
    43 H9      -5.8425  -8.4686  23.0922   H         1 BD3    0.2015
    44 H10     -3.4695  -8.3592  12.2398   H         1 BD3    0.0823
    45 H11     -1.9007  -6.8962  11.1058   H         1 BD3    0.1894
    46 H12     -0.2423  -7.3869   9.3356   H         1 BD3    0.0803
    47 H13      0.7758  -8.1337  10.6132   H         1 BD3    0.0803
    48 H14      0.4979  -5.4751  11.6660   H         1 BD3    0.1222
    49 H15     -6.8874 -13.4966  13.7694   H         1 BD3    0.0637
    50 H16     -6.3299 -12.4348  12.4321   H         1 BD3    0.0637
    51 H17     -6.5528 -11.7597  14.0817   H         1 BD3    0.0637
    52 H18     -0.3562 -15.8345  15.7417   H         1 BD3    0.0147
    53 H19     -0.7818 -14.1251  16.0925   H         1 BD3    0.0147
    54 H20     -0.3537 -14.6187  14.4193   H         1 BD3    0.0147
    55 H21     -3.4741 -16.6239  13.8599   H         1 BD3    0.0147
    56 H22     -1.9313 -17.2887  14.4956   H         1 BD3    0.0147
    57 H23     -1.9112 -16.1189  13.1326   H         1 BD3    0.0147
    58 H24     -2.9446 -14.9107  17.1085   H         1 BD3    0.0147
    59 H25     -2.4509 -16.5985  16.7425   H         1 BD3    0.0147
    60 H26     -4.0359 -15.9811  16.1654   H         1 BD3    0.0147
    61 H27      1.8177  -4.5190   9.9181   H         1 BD3    0.1054
    62 H28     -2.0183 -10.3024  14.0015   H         1 BD3    0.1877
    63 H29     -1.6410 -12.4941  14.0710   H         1 BD3    0.0542
    64 H30     -1.7441  -7.6374  14.6619   H         1 BD3    0.0473
    65 H31     -2.6579  -6.5149  13.5980   H         1 BD3    0.0473
@<TRIPOS>BOND
     1     1     2   ar
     2     3     1   ar
     3     1    30    1
     4     4     2   ar
     5     5     3   ar
     6     6     4   ar
     7     5     6   ar
     8     7     5    1
     9    31     7    1
    10     7    34    2
    11     8     9    1
    12    32     8    1
    13    10    22    1
    14    10    24    1
    15    30    10    1
    16    11    12    1
    17    24    11   am
    18    11    25    2
    19    12    26    2
    20    12    29    1
    21    13    14    1
    22    22    13   am
    23    14    15    1
    24    15    21    2
    25    29    16    1
    26    17    18    1
    27    17    19    1
    28    17    20    1
    29    27    17    1
    30    22    23    2
    31    26    27    1
    32    28    27    2
    33    29    28    1
    34    31    32    1
    35    32    33    2
    36    33    34    1
    37     2    35    1
    38     3    36    1
    39     4    37    1
    40     6    38    1
    41     8    39    1
    42     8    40    1
    43     9    41    1
    44     9    42    1
    45     9    43    1
    46    10    44    1
    47    13    45    1
    48    14    46    1
    49    14    47    1
    50    15    48    1
    51    16    49    1
    52    16    50    1
    53    16    51    1
    54    18    52    1
    55    18    53    1
    56    18    54    1
    57    19    55    1
    58    19    56    1
    59    19    57    1
    60    20    58    1
    61    20    59    1
    62    20    60    1
    63    21    61    1
    64    24    62    1
    65    26    63    1
    66    30    64    1
    67    30    65    1
@<TRIPOS>SUBSTRUCTURE
     1 BD3         1 GROUP             0 ****  ****    0  
@<TRIPOS>MOLECULE
3of8_ligand
    75    77     1     0     0
SMALL
USER_CHARGES
****
Generated from the CSD

@<TRIPOS>ATOM
     1 C1      -2.9635 -11.3522  13.2270   C.2       1 I0Y    0.3240
     2 O1      -2.9315 -11.2918  11.9701   O.2       1 I0Y   -0.3773
     3 O2      -3.5735 -12.2863  13.8400   O.3       1 I0Y   -0.2505
     4 C2      -3.7598 -13.5543  13.3105   C.3       1 I0Y    0.1113
     5 C3      -3.0905 -14.6255  14.1309   C.ar      1 I0Y   -0.0130
     6 C8      -3.8386 -15.4208  14.9935   C.ar      1 I0Y   -0.0578
     7 C7      -3.1861 -16.3884  15.7620   C.ar      1 I0Y   -0.0685
     8 C6      -1.7952 -16.5341  15.6759   C.ar      1 I0Y   -0.0687
     9 C5      -1.0497 -15.7168  14.8224   C.ar      1 I0Y   -0.0685
    10 C4      -1.7019 -14.7576  14.0478   C.ar      1 I0Y   -0.0578
    11 N1      -2.6183 -10.1808  13.9687   N.am      1 I0Y   -0.2393
    12 C9      -2.8299  -9.0225  12.9929   C.3       1 I0Y    0.1423
    13 C10     -1.5090  -8.7187  12.1516   C.2       1 I0Y    0.2061
    14 O3      -0.3722  -9.0552  12.4413   O.2       1 I0Y   -0.3942
    15 C11     -3.6072  -7.6944  13.4725   C.3       1 I0Y    0.0214
    16 C12     -4.1766  -7.6995  14.8682   C.ar      1 I0Y   -0.0386
    17 C13     -3.2613  -7.6806  15.8945   C.ar      1 I0Y   -0.0601
    18 C14     -5.5367  -7.7439  15.1253   C.ar      1 I0Y   -0.0601
    19 C15     -3.7009  -7.7085  17.2054   C.ar      1 I0Y   -0.0686
    20 C16     -5.9780  -7.7630  16.4457   C.ar      1 I0Y   -0.0686
    21 C17     -5.0586  -7.7494  17.4809   C.ar      1 I0Y   -0.0687
    22 N2      -1.8292  -7.8580  11.0484   N.am      1 I0Y   -0.2630
    23 O4      -1.0054  -5.3612   9.3290   O.2       1 I0Y   -0.3865
    24 O5       0.6517  -5.0668   4.5697   O.3       1 I0Y   -0.3169
    25 O6       1.3107  -4.9005   9.9313   O.3       1 I0Y   -0.3756
    26 C18     -1.8160  -8.0721   8.6488   C.3       1 I0Y    0.0153
    27 C19     -0.9811  -7.7168   9.8909   C.3       1 I0Y    0.1253
    28 C20     -0.4762  -6.2896   9.9381   C.2       1 I0Y    0.1574
    29 C21      0.6776  -5.9453  10.5809   C.3       1 I0Y    0.1196
    30 C23     -1.3502  -7.3326   7.4488   C.ar      1 I0Y   -0.0492
    31 C24     -0.1122  -5.8197   5.5091   C.ar      1 I0Y    0.0847
    32 C25      0.6824  -2.9236   5.6261   C.3       1 I0Y   -0.0322
    33 C26      1.5217  -4.0115   5.0089   C.3       1 I0Y    0.0821
    34 C28     -2.1557  -6.5821   6.5808   C.ar      1 I0Y   -0.0685
    35 C27      0.0187  -7.3246   7.3798   C.ar      1 I0Y   -0.0685
    36 C30     -1.5227  -5.8139   5.5858   C.ar      1 I0Y   -0.0395
    37 C29      0.6348  -6.5687   6.4002   C.ar      1 I0Y   -0.0395
    38 C32      2.5371  -4.4606   6.0270   C.3       1 I0Y   -0.0322
    39 C33      2.3329  -3.4469   3.8484   C.3       1 I0Y   -0.0322
    40 H       -3.3202 -13.5703  12.3132   H         1 I0Y    0.0776
    41 H       -4.8302 -13.7597  13.2978   H         1 I0Y    0.0776
    42 H       -4.9183 -15.2909  15.0686   H         1 I0Y    0.0557
    43 H       -3.7601 -17.0309  16.4296   H         1 I0Y    0.0599
    44 H       -1.2917 -17.2900  16.2786   H         1 I0Y    0.0559
    45 H        0.0330 -15.8277  14.7626   H         1 I0Y    0.0599
    46 H       -1.1303 -14.1132  13.3797   H         1 I0Y    0.0557
    47 H       -2.3005 -10.1286  14.9364   H         1 I0Y    0.1901
    48 H       -3.6021  -9.4324  12.3417   H         1 I0Y    0.0823
    49 H       -4.4616  -7.5923  12.8035   H         1 I0Y    0.0474
    50 H       -2.8667  -6.8948  13.4567   H         1 I0Y    0.0474
    51 H       -2.1941  -7.6439  15.6757   H         1 I0Y    0.0557
    52 H       -6.2530  -7.7637  14.3040   H         1 I0Y    0.0557
    53 H       -2.9793  -7.6982  18.0223   H         1 I0Y    0.0599
    54 H       -7.0456  -7.7887  16.6642   H         1 I0Y    0.0599
    55 H       -5.4033  -7.7708  18.5148   H         1 I0Y    0.0559
    56 H       -2.6962  -7.3219  11.0848   H         1 I0Y    0.1885
    57 H        0.7281  -4.1377   9.9113   H         1 I0Y    0.2130
    58 H       -2.8535  -7.7987   8.8410   H         1 I0Y    0.0453
    59 H       -1.7121  -9.1401   8.4574   H         1 I0Y    0.0453
    60 H       -0.1174  -8.3810   9.8624   H         1 I0Y    0.0813
    61 H        0.4336  -5.6311  11.5957   H         1 I0Y    0.0793
    62 H        1.3442  -6.8076  10.5911   H         1 I0Y    0.0793
    63 H       -0.0193  -2.5426   4.8841   H         1 I0Y    0.0261
    64 H        0.1313  -3.3289   6.4748   H         1 I0Y    0.0261
    65 H        1.3300  -2.1148   5.9646   H         1 I0Y    0.0261
    66 H       -3.2417  -6.5932   6.6739   H         1 I0Y    0.0530
    67 H        0.6120  -7.9051   8.0863   H         1 I0Y    0.0530
    68 H       -2.1122  -5.2232   4.8847   H         1 I0Y    0.0525
    69 H        1.7224  -6.5630   6.3291   H         1 I0Y    0.0525
    70 H        2.0217  -4.8488   6.9055   H         1 I0Y    0.0261
    71 H        3.1613  -5.2429   5.5952   H         1 I0Y    0.0261
    72 H        3.1605  -3.6139   6.3145   H         1 I0Y    0.0261
    73 H        2.9401  -4.2396   3.4115   H         1 I0Y    0.0261
    74 H        1.6555  -3.0482   3.0933   H         1 I0Y    0.0261
    75 H        2.9812  -2.6503   4.2135   H         1 I0Y    0.0261
@<TRIPOS>BOND
     1     1     2    2
     2     1     3    1
     3    11     1   am
     4     3     4    1
     5     4     5    1
     6     5     6   ar
     7     5    10   ar
     8     6     7   ar
     9     7     8   ar
    10     9     8   ar
    11    10     9   ar
    12    12    11    1
    13    13    12    1
    14    12    15    1
    15    13    14    2
    16    22    13   am
    17    15    16    1
    18    16    17   ar
    19    16    18   ar
    20    17    19   ar
    21    18    20   ar
    22    19    21   ar
    23    20    21   ar
    24    27    22    1
    25    28    23    2
    26    31    24    1
    27    24    33    1
    28    29    25    1
    29    26    27    1
    30    30    26    1
    31    27    28    1
    32    28    29    1
    33    34    30   ar
    34    30    35   ar
    35    36    31   ar
    36    31    37   ar
    37    33    32    1
    38    33    38    1
    39    33    39    1
    40    34    36   ar
    41    35    37   ar
    42     4    40    1
    43     4    41    1
    44     6    42    1
    45     7    43    1
    46     8    44    1
    47     9    45    1
    48    10    46    1
    49    11    47    1
    50    12    48    1
    51    15    49    1
    52    15    50    1
    53    17    51    1
    54    18    52    1
    55    19    53    1
    56    20    54    1
    57    21    55    1
    58    22    56    1
    59    25    57    1
    60    26    58    1
    61    26    59    1
    62    27    60    1
    63    29    61    1
    64    29    62    1
    65    32    63    1
    66    32    64    1
    67    32    65    1
    68    34    66    1
    69    35    67    1
    70    36    68    1
    71    37    69    1
    72    38    70    1
    73    38    71    1
    74    38    72    1
    75    39    73    1
    76    39    74    1
    77    39    75    1
@<TRIPOS>SUBSTRUCTURE
     1 I0Y         1 RESIDUE           0 ****  ****    0  
