@<TRIPOS>MOLECULE
NVB_A1133_3LPB
   56    59     0     0     0
SMALL
USER_CHARGES

@<TRIPOS>ATOM
      1 C1        110.2420   64.6810    6.6980 C.3       1 <0>         0.0151
      2 C2        115.4890   69.4610   16.4860 C.3       1 <0>         0.0431
      3 C3        111.3400   65.8480   11.6450 C.3       1 <0>         0.0431
      4 C4        112.1690   65.9590   16.2470 C.3       1 <0>         0.0432
      5 C5        119.1050   66.8130    7.4980 C.ar      1 <0>        -0.0590
      6 C6        117.9130   66.0900    7.3280 C.ar      1 <0>        -0.0519
      7 C7        119.2750   67.5650    8.6720 C.ar      1 <0>        -0.0342
      8 C8        115.0450   64.5560    9.1440 C.ar      1 <0>        -0.0521
      9 C9        115.1560   65.2220    6.7890 C.ar      1 <0>        -0.0521
     10 C10       113.8950   63.8160    8.8730 C.ar      1 <0>        -0.0345
     11 C11       114.0210   64.4470    6.5110 C.ar      1 <0>        -0.0345
     12 C12       115.4820   67.9800   13.9050 C.ar      1 <0>        -0.0198
     13 C13       114.0510   66.9160   12.2940 C.ar      1 <0>        -0.0198
     14 C14       117.5160   68.2960   11.7660 C.ar      1 <0>         0.0542
     15 C15       115.6780   65.2800    8.0970 C.ar      1 <0>        -0.0157
     16 C16       113.3930   63.7400    7.5650 C.ar      1 <0>         0.1082
     17 C17       116.9060   66.0850    8.3270 C.ar      1 <0>         0.0096
     18 C18       118.2740   67.5680    9.6660 C.ar      1 <0>         0.0898
     19 C19       115.2550   67.5140   12.6070 C.ar      1 <0>         0.0069
     20 C20       114.4590   67.8790   14.8820 C.ar      1 <0>         0.1088
     21 C21       113.0240   66.8340   13.2520 C.ar      1 <0>         0.1088
     22 C22       116.3370   67.5720   11.5870 C.ar      1 <0>         0.0899
     23 C23       117.1090   66.8010    9.5090 C.ar      1 <0>         0.0975
     24 C24       113.2420   67.3150   14.5460 C.ar      1 <0>         0.1357
     25 N1        118.4520   68.2780   10.7980 N.ar      1 <0>        -0.2513
     26 N2        116.1580   66.8230   10.4690 N.ar      1 <0>        -0.2430
     27 N3        111.0970   63.6160    6.2030 N.pl3     1 <0>        -0.2505
     28 O1        111.0950   62.6620    8.4100 O.2       1 <0>        -0.1503
     29 O2        112.3600   61.5320    6.6270 O.2       1 <0>        -0.1503
     30 O3        114.6180   68.3650   16.1720 O.3       1 <0>        -0.3452
     31 O4        111.7790   66.2830   12.9670 O.3       1 <0>        -0.3452
     32 O5        112.2540   67.2060   15.5110 O.3       1 <0>        -0.3430
     33 S1        111.9540   62.7430    7.2580 S.o2      1 <0>         0.0680
     34 H1        109.7358   65.1687    5.8519 H         1 <0>         0.0439
     35 H2        109.4901   64.2596    7.3814 H         1 <0>         0.0439
     36 H3        110.8527   65.4212    7.2358 H         1 <0>         0.0439
     37 H4        115.4487   69.6642   17.5663 H         1 <0>         0.0529
     38 H5        116.5195   69.2039   16.1997 H         1 <0>         0.0529
     39 H6        115.1668   70.3554   15.9326 H         1 <0>         0.0529
     40 H7        110.3152   65.4535   11.7098 H         1 <0>         0.0529
     41 H8        111.3607   66.7024   10.9524 H         1 <0>         0.0529
     42 H9        112.0133   65.0603   11.2760 H         1 <0>         0.0529
     43 H10       111.3450   66.0168   16.9734 H         1 <0>         0.0529
     44 H11       111.9825   65.1318   15.5463 H         1 <0>         0.0529
     45 H12       113.1152   65.7825   16.7795 H         1 <0>         0.0529
     46 H13       119.8753   66.7912    6.7413 H         1 <0>         0.0618
     47 H14       117.7601   65.5270    6.4191 H         1 <0>         0.0624
     48 H15       120.1759   68.1434    8.8144 H         1 <0>         0.0639
     49 H16       115.4528   64.5791   10.1438 H         1 <0>         0.0624
     50 H17       115.6333   65.7781    5.9957 H         1 <0>         0.0624
     51 H18       113.3879   63.2986    9.6740 H         1 <0>         0.0637
     52 H19       113.6307   64.3900    5.5056 H         1 <0>         0.0637
     53 H20       116.4354   68.4165   14.1637 H         1 <0>         0.0651
     54 H21       113.8962   66.5079   11.3061 H         1 <0>         0.0651
     55 H22       117.6762   68.8643   12.6703 H         1 <0>         0.0851
     56 H23       110.4987   62.9730    5.7249 H         1 <0>         0.1669
@<TRIPOS>BOND
     1    1   27 1
     2    2   30 1
     3    3   31 1
     4    4   32 1
     5    5    6 ar
     6    5    7 ar
     7    6   17 ar
     8    7   18 ar
     9    8   10 ar
    10    8   15 ar
    11    9   11 ar
    12    9   15 ar
    13   10   16 ar
    14   11   16 ar
    15   12   19 ar
    16   12   20 ar
    17   13   19 ar
    18   13   21 ar
    19   14   22 ar
    20   14   25 ar
    21   15   17 1
    22   16   33 1
    23   17   23 ar
    24   18   23 ar
    25   18   25 ar
    26   19   22 1
    27   20   24 ar
    28   20   30 1
    29   21   24 ar
    30   21   31 1
    31   22   26 ar
    32   23   26 ar
    33   24   32 1
    34   27   33 1
    35   28   33 2
    36   29   33 2
    37    1   34 1
    38    1   35 1
    39    1   36 1
    40    2   37 1
    41    2   38 1
    42    2   39 1
    43    3   40 1
    44    3   41 1
    45    3   42 1
    46    4   43 1
    47    4   44 1
    48    4   45 1
    49    5   46 1
    50    6   47 1
    51    7   48 1
    52    8   49 1
    53    9   50 1
    54   10   51 1
    55   11   52 1
    56   12   53 1
    57   13   54 1
    58   14   55 1
    59   27   56 1
